@<TRIPOS>MOLECULE
5zxf
70 74 1 0 0
SMALL
AMBER ff14SB


@<TRIPOS>ATOM
      1 O3          8.0120  -20.2880   -8.2030 O.2       1 NUT   -0.2534
      2 C25         8.2120  -21.0720   -7.3120 C.2       1 NUT    0.3098
      3 N2          8.7230  -22.2790   -7.6030 N.am      1 NUT   -0.2746
      4 C29         9.3030  -22.4760   -8.9330 C.3       1 NUT    0.0926
      5 C28        10.2700  -23.6000   -9.0320 C.2       1 NUT    0.2293
      6 O2         10.8890  -23.7710  -10.1120 O.2       1 NUT   -0.2759
      7 N3         10.4270  -24.3840   -8.0020 N.am      1 NUT   -0.3125
      8 C27         9.6750  -24.4040   -6.7570 C.3       1 NUT    0.0269
      9 C26         8.4420  -23.5270   -6.8630 C.3       1 NUT    0.0318
     10 N1          7.8900  -20.6820   -6.0370 N.am      1 NUT   -0.2291
     11 C10         8.3750  -21.0470   -4.7430 C.2       1 NUT    0.1339
     12 C9          9.6640  -21.7240   -4.5070 C.ar      1 NUT    0.0454
     13 C3          9.7040  -22.7800   -3.6000 C.ar      1 NUT   -0.0462
     14 C2         10.8930  -23.4450   -3.3580 C.ar      1 NUT   -0.0309
     15 C5         10.8410  -21.3020   -5.1160 C.ar      1 NUT    0.0886
     16 O1         10.7440  -20.2370   -5.9360 O.3       1 NUT   -0.3426
     17 C6         11.8450  -19.8700   -6.7720 C.3       1 NUT    0.0586
     18 C8         12.7600  -18.9790   -5.9650 C.3       1 NUT   -0.0384
     19 C7         11.3170  -19.1480   -7.9750 C.3       1 NUT   -0.0384
     20 C4         12.0540  -21.9450   -4.8410 C.ar      1 NUT   -0.0006
     21 C1         12.0640  -23.0130   -3.9660 C.ar      1 NUT    0.0772
     22 O          13.3060  -23.5770   -3.7650 O.3       1 NUT   -0.3493
     23 C          13.4140  -24.6060   -2.7790 C.3       1 NUT    0.0422
     24 C18         6.7810  -19.7210   -5.8370 C.3       1 NUT    0.0851
     25 C19         7.1300  -18.2550   -5.9340 C.ar      1 NUT   -0.0244
     26 C24         8.4120  -17.8100   -5.6470 C.ar      1 NUT   -0.0556
     27 C23         8.7120  -16.4520   -5.6660 C.ar      1 NUT   -0.0432
     28 C22         7.7300  -15.5530   -5.9970 C.ar      1 NUT    0.0406
     29 CL1         8.0780  -13.8520   -5.9450 Cl        1 NUT   -0.0843
     30 C21         6.4500  -15.9750   -6.2750 C.ar      1 NUT   -0.0432
     31 C20         6.1650  -17.3200   -6.2770 C.ar      1 NUT   -0.0556
     32 C11         6.3700  -20.1940   -4.4100 C.3       1 NUT    0.1003
     33 N           7.6070  -20.6980   -3.7890 N.2       1 NUT   -0.2588
     34 C12         5.7270  -19.1030   -3.5930 C.ar      1 NUT   -0.0211
     35 C17         6.4860  -18.2680   -2.7940 C.ar      1 NUT   -0.0553
     36 C16         5.9030  -17.2490   -2.0720 C.ar      1 NUT   -0.0432
     37 C15         4.5400  -17.0650   -2.1360 C.ar      1 NUT    0.0406
     38 CL          3.8050  -15.7460   -1.2520 Cl        1 NUT   -0.0843
     39 C14         3.7540  -17.9040   -2.9110 C.ar      1 NUT   -0.0432
     40 C13         4.3520  -18.8930   -3.6560 C.ar      1 NUT   -0.0553
     41 H292        8.4892  -22.6666   -9.6326 H         1 NUT    0.0571
     42 H293        9.8079  -21.5570   -9.2306 H         1 NUT    0.0571
     43 HN3        11.1675  -25.0666   -8.0786 H         1 NUT    0.1494
     44 H272        9.3688  -25.4274   -6.5402 H         1 NUT    0.0483
     45 H273       10.3080  -24.0387   -5.9483 H         1 NUT    0.0483
     46 H262        8.1012  -23.2736   -5.8592 H         1 NUT    0.0487
     47 H263        7.6554  -24.0781   -7.3784 H         1 NUT    0.0487
     48 H3          8.8042  -23.0808   -3.0839 H         1 NUT    0.0632
     49 H2         10.9101  -24.2990   -2.6970 H         1 NUT    0.0651
     50 H6         12.3837  -20.7641   -7.0857 H         1 NUT    0.0603
     51 H4         12.9691  -21.6102   -5.3068 H         1 NUT    0.0679
     52 H18         5.9770  -19.9474   -6.5374 H         1 NUT    0.0589
     53 H24         9.1848  -18.5250   -5.4064 H         1 NUT    0.0627
     54 H23         9.7068  -16.1091   -5.4229 H         1 NUT    0.0639
     55 H21         5.6747  -15.2546   -6.4901 H         1 NUT    0.0639
     56 H20         5.1746  -17.6534   -6.5498 H         1 NUT    0.0627
     57 H11         5.6654  -21.0202   -4.5054 H         1 NUT    0.0627
     58 H17         7.5540  -18.4168   -2.7346 H         1 NUT    0.0627
     59 H16         6.5112  -16.5992   -1.4602 H         1 NUT    0.0639
     60 H14         2.6811  -17.7818   -2.9294 H         1 NUT    0.0639
     61 H13         3.7470  -19.5153   -4.2987 H         1 NUT    0.0627
     62 H81        13.1294  -19.5267   -5.0980 H         1 NUT    0.0257
     63 H82        12.2090  -18.0998   -5.6313 H         1 NUT    0.0257
     64 H83        13.6017  -18.6672   -6.5834 H         1 NUT    0.0257
     65 H71        10.6611  -19.8114   -8.5387 H         1 NUT    0.0257
     66 H72        12.1494  -18.8378   -8.6066 H         1 NUT    0.0257
     67 H73        10.7569  -18.2695   -7.6547 H         1 NUT    0.0257
     68 H1         14.4533  -24.9243   -2.6976 H         1 NUT    0.0535
     69 H5         12.7960  -25.4550   -3.0711 H         1 NUT    0.0535
     70 H7         13.0747  -24.2238   -1.8163 H         1 NUT    0.0535
@<TRIPOS>BOND
     1    1    2 2
     2    2    3 am
     3    2   10 am
     4    3    4 1
     5    3    9 1
     6    4    5 1
     7    5    6 2
     8    5    7 am
     9    7    8 1
    10    8    9 1
    11   10   11 1
    12   10   24 1
    13   11   12 1
    14   11   33 2
    15   12   13 ar
    16   12   15 ar
    17   13   14 ar
    18   14   21 ar
    19   15   16 1
    20   15   20 ar
    21   16   17 1
    22   17   18 1
    23   17   19 1
    24   20   21 ar
    25   21   22 1
    26   22   23 1
    27   24   25 1
    28   24   32 1
    29   25   26 ar
    30   25   31 ar
    31   26   27 ar
    32   27   28 ar
    33   28   29 1
    34   28   30 ar
    35   30   31 ar
    36   32   33 1
    37   32   34 1
    38   34   35 ar
    39   34   40 ar
    40   35   36 ar
    41   36   37 ar
    42   37   38 1
    43   37   39 ar
    44   39   40 ar
    45   41    4 1
    46   42    4 1
    47   43    7 1
    48   44    8 1
    49   45    8 1
    50   46    9 1
    51   47    9 1
    52   48   13 1
    53   49   14 1
    54   50   17 1
    55   51   20 1
    56   52   24 1
    57   53   26 1
    58   54   27 1
    59   55   30 1
    60   56   31 1
    61   57   32 1
    62   58   35 1
    63   59   36 1
    64   60   39 1
    65   61   40 1
    66   62   18 1
    67   63   18 1
    68   64   18 1
    69   65   19 1
    70   66   19 1
    71   67   19 1
    72   68   23 1
    73   69   23 1
    74   70   23 1
