@<TRIPOS>MOLECULE
LIGAND
 47 48 0 0 0
SMALL
GASTEIGER

@<TRIPOS>ATOM
      1 C          16.1500   22.3350   42.8110 C.2     1  UNL1        0.3982
      2 O          15.3160   21.8930   41.9800 O.co2   1  UNL1       -0.2419
      3 O          16.9980   23.2070   42.5060 O.co2   1  UNL1       -0.2419
      4 C          16.1410   21.7710   44.2030 C.3     1  UNL1        0.2047
      5 C          15.1160   22.5540   45.0230 C.3     1  UNL1       -0.0144
      6 H          15.0619   22.1799   46.0577 H       1  UNL1        0.0273
      7 H          15.3649   23.6269   45.0656 H       1  UNL1        0.0273
      8 H          14.1065   22.4630   44.5883 H       1  UNL1        0.0273
      9 C          17.5310   21.9290   44.8610 C.3     1  UNL1       -0.0144
     10 H          17.5541   21.4127   45.8334 H       1  UNL1        0.0273
     11 H          18.3473   21.5168   44.2477 H       1  UNL1        0.0273
     12 H          17.7642   22.9903   45.0477 H       1  UNL1        0.0273
     13 O          15.7170   20.3840   44.1390 O.3     1  UNL1       -0.4749
     14 C          16.5230   19.2430   43.6250 C.ar    1  UNL1        0.1221
     15 C          16.2460   17.9700   44.1170 C.ar    1  UNL1       -0.0196
     16 H          15.4668   17.8367   44.8675 H       1  UNL1        0.0654
     17 C          16.9520   16.8770   43.6600 C.ar    1  UNL1       -0.0547
     18 H          16.7273   15.8853   44.0527 H       1  UNL1        0.0622
     19 C          17.9400   17.0290   42.7100 C.ar    1  UNL1       -0.0384
     20 C          17.5250   19.4050   42.6630 C.ar    1  UNL1       -0.0196
     21 H          17.7525   20.3959   42.2701 H       1  UNL1        0.0654
     22 C          18.2350   18.2860   42.2070 C.ar    1  UNL1       -0.0547
     23 H          19.0179   18.4043   41.4579 H       1  UNL1        0.0622
     24 C          18.6450   15.8760   42.2400 C.3     1  UNL1        0.0494
     25 H          18.9367   15.2468   43.1044 H       1  UNL1        0.0407
     26 H          19.6099   16.1765   41.7887 H       1  UNL1        0.0407
     27 C          17.8550   15.0410   41.2140 C.2     1  UNL1        0.2215
     28 O          16.7450   15.4130   40.8360 O.2     1  UNL1       -0.2751
     29 N          18.2860   13.8040   41.0020 N.am    1  UNL1       -0.2852
     30 H          19.1093   13.4965   41.5391 H       1  UNL1        0.1548
     31 C          17.7310   12.8920   40.1270 C.ar    1  UNL1        0.0339
     32 C          16.3370   12.7960   39.9850 C.ar    1  UNL1       -0.0375
     33 H          15.6892   13.5478   40.4357 H       1  UNL1        0.0639
     34 C          15.7870   11.7440   39.2710 C.ar    1  UNL1       -0.0484
     35 C          16.6210   10.7910   38.7010 C.ar    1  UNL1       -0.0558
     36 H          16.1929    9.9591   38.1417 H       1  UNL1        0.0623
     37 C          18.5490   11.9350   39.5470 C.ar    1  UNL1       -0.0375
     38 H          19.6312   12.0105   39.6525 H       1  UNL1        0.0639
     39 C          18.0040   10.8950   38.8420 C.ar    1  UNL1       -0.0484
     40 C          14.3030   11.6400   39.1100 C.3     1  UNL1       -0.0396
     41 H          13.8285   12.6314   39.1672 H       1  UNL1        0.0278
     42 H          14.0383   11.1938   38.1399 H       1  UNL1        0.0278
     43 H          13.8615   11.0120   39.9008 H       1  UNL1        0.0278
     44 C          18.9090    9.8760   38.2190 C.3     1  UNL1       -0.0396
     45 H          18.4728    9.4727   37.2928 H       1  UNL1        0.0278
     46 H          19.8880   10.3114   37.9693 H       1  UNL1        0.0278
     47 H          19.0811    9.0290   38.9030 H       1  UNL1        0.0278
@<TRIPOS>BOND
     1     1     2   ar
     2     1     3   ar
     3     1     4    1
     4     4     5    1
     5     4     9    1
     6     4    13    1
     7     5     6    1
     8     5     7    1
     9     5     8    1
    10     9    10    1
    11     9    11    1
    12     9    12    1
    13    13    14    1
    14    14    15   ar
    15    14    20   ar
    16    15    17   ar
    17    15    16    1
    18    17    19   ar
    19    17    18    1
    20    19    22   ar
    21    19    24    1
    22    20    22   ar
    23    20    21    1
    24    22    23    1
    25    24    27    1
    26    24    25    1
    27    24    26    1
    28    27    28    2
    29    27    29   am
    30    29    31    1
    31    29    30    1
    32    31    32   ar
    33    31    37   ar
    34    32    34   ar
    35    32    33    1
    36    34    35   ar
    37    34    40    1
    38    35    39   ar
    39    35    36    1
    40    37    39   ar
    41    37    38    1
    42    39    44    1
    43    40    41    1
    44    40    42    1
    45    40    43    1
    46    44    45    1
    47    44    46    1
    48    44    47    1
