@<TRIPOS>MOLECULE
LIGAND
 50 49 0 0 0
SMALL
GASTEIGER

@<TRIPOS>ATOM
      1 C          69.1190   32.8830  117.6770 C.3     1  UNL1       -0.0579
      2 H          69.7957   32.0152  117.7483 H       1  UNL1        0.0236
      3 H          68.4783   32.7264  116.7933 H       1  UNL1        0.0236
      4 H          69.7424   33.7719  117.4809 H       1  UNL1        0.0236
      5 C          67.4240   34.3730  118.7360 C.3     1  UNL1       -0.0579
      6 H          66.8241   34.6340  119.6234 H       1  UNL1        0.0236
      7 H          68.0877   35.2281  118.5221 H       1  UNL1        0.0236
      8 H          66.7306   34.2694  117.8862 H       1  UNL1        0.0236
      9 C          68.2790   33.0670  118.9690 C.3     1  UNL1       -0.0108
     10 C          67.3890   31.7540  119.2710 C.3     1  UNL1        0.1042
     11 H          68.0752   30.9036  119.3698 H       1  UNL1        0.0600
     12 C          69.2630   33.4070  120.1530 C.3     1  UNL1       -0.0579
     13 H          68.7104   33.6234  121.0824 H       1  UNL1        0.0236
     14 H          69.9573   32.5767  120.3601 H       1  UNL1        0.0236
     15 H          69.8688   34.2959  119.9087 H       1  UNL1        0.0236
     16 C          66.4910   31.8470  120.5860 C.2     1  UNL1        0.2336
     17 O          65.4060   32.4680  120.5890 O.2     1  UNL1       -0.2738
     18 N          66.4500   31.4280  118.1310 N.am    1  UNL1       -0.3032
     19 H          65.9119   32.1999  117.7120 H       1  UNL1        0.1495
     20 N          67.0030   31.1960  121.6670 N.am    1  UNL1       -0.3168
     21 H          67.9050   30.7119  121.5532 H       1  UNL1        0.1484
     22 C          66.3500   31.1370  122.9960 C.3     1  UNL1        0.0001
     23 H          65.5390   31.8740  123.0276 H       1  UNL1        0.0426
     24 H          65.9215   30.1381  123.1793 H       1  UNL1        0.0426
     25 H          67.0788   31.3864  123.7829 H       1  UNL1        0.0426
     26 C          62.2950   30.8850  117.4880 C.3     1  UNL1       -0.0626
     27 H          61.5476   31.2003  118.2355 H       1  UNL1        0.0232
     28 H          62.9746   31.7386  117.3353 H       1  UNL1        0.0232
     29 H          61.7654   30.7077  116.5367 H       1  UNL1        0.0232
     30 C          63.0380   29.6080  117.9420 C.3     1  UNL1       -0.0460
     31 H          63.5690   29.7891  118.8938 H       1  UNL1        0.0296
     32 C          66.0930   29.3440  115.2980 C.3     1  UNL1        0.0299
     33 H          66.4720   28.3734  115.6582 H       1  UNL1        0.0477
     34 H          66.9718   29.9545  115.0343 H       1  UNL1        0.0477
     35 C          65.2680   30.0260  116.4520 C.3     1  UNL1        0.0520
     36 H          64.9112   31.0093  116.1056 H       1  UNL1        0.0410
     37 C          64.0190   29.1340  116.8410 C.3     1  UNL1       -0.0381
     38 H          63.4311   28.9954  115.9149 H       1  UNL1        0.0275
     39 H          64.4021   28.1321  117.1081 H       1  UNL1        0.0275
     40 C          61.9510   28.5640  118.1220 C.3     1  UNL1       -0.0626
     41 H          62.3529   27.5882  118.4422 H       1  UNL1        0.0232
     42 H          61.2129   28.8686  118.8833 H       1  UNL1        0.0232
     43 H          61.4062   28.4001  117.1764 H       1  UNL1        0.0232
     44 C          66.2740   30.1870  117.6290 C.2     1  UNL1        0.2182
     45 C          64.8510   27.9580  113.6730 C.2     1  UNL1        0.0438
     46 H          65.0669   27.0871  114.2918 H       1  UNL1        0.0875
     47 O          65.0830   30.1770  113.3580 O.3     1  UNL1       -0.4205
     48 N          65.3230   29.1400  114.0740 N.am    1  UNL1       -0.2982
     49 O          64.2130   27.7930  112.6890 O.2     1  UNL1       -0.5456
     50 O          66.8820   29.1800  118.0670 O.2     1  UNL1       -0.2754
@<TRIPOS>BOND
     1     1     9    1
     2     1     2    1
     3     1     3    1
     4     1     4    1
     5     5     9    1
     6     5     6    1
     7     5     7    1
     8     5     8    1
     9     9    10    1
    10     9    12    1
    11    10    16    1
    12    10    18    1
    13    10    11    1
    14    12    13    1
    15    12    14    1
    16    12    15    1
    17    16    17    2
    18    16    20   am
    19    18    44   am
    20    18    19    1
    21    20    22    1
    22    20    21    1
    23    22    23    1
    24    22    24    1
    25    22    25    1
    26    26    30    1
    27    26    27    1
    28    26    28    1
    29    26    29    1
    30    30    37    1
    31    30    40    1
    32    30    31    1
    33    32    35    1
    34    32    48    1
    35    32    33    1
    36    32    34    1
    37    35    37    1
    38    35    44    1
    39    35    36    1
    40    37    38    1
    41    37    39    1
    42    40    41    1
    43    40    42    1
    44    40    43    1
    45    44    50    2
    46    45    48   am
    47    45    49    2
    48    45    46    1
    49    47    48    1
