@<TRIPOS>MOLECULE
LIGAND
 41 43 0 0 0
SMALL
GASTEIGER

@<TRIPOS>ATOM
      1 O          11.7930   -2.1560    2.0530 O.2     1  UNL1       -0.2734
      2 C          12.8370   -2.6800    2.3630 C.2     1  UNL1        0.2404
      3 N          13.1500   -3.9790    2.7790 N.am    1  UNL1       -0.2681
      4 CA         12.3530   -5.0080    3.3790 C.3     1  UNL1        0.1447
      5 HA         11.3694   -4.5981    3.6583 H       1  UNL1        0.0633
      6 C          12.1060   -6.2040    2.4480 C.2     1  UNL1        0.3775
      7 O          12.4880   -6.2830    1.3210 O.co2   1  UNL1       -0.2442
      8 OXT        11.4180   -7.1670    3.1260 O.co2   1  UNL1       -0.2442
      9 C          13.1470   -5.3640    4.6560 C.3     1  UNL1        0.0713
     10 C          14.0770   -6.6000    4.5160 C.3     1  UNL1       -0.0460
     11 H          14.7870   -6.6663    5.3551 H       1  UNL1        0.0244
     12 H          13.4778   -7.5255    4.5226 H       1  UNL1        0.0244
     13 H          14.6587   -6.5895    3.5834 H       1  UNL1        0.0244
     14 C          12.2410   -5.6410    5.8740 C.3     1  UNL1       -0.0460
     15 H          12.8362   -5.8400    6.7766 H       1  UNL1        0.0244
     16 H          11.5663   -4.7993    6.0925 H       1  UNL1        0.0244
     17 H          11.6123   -6.5243    5.6740 H       1  UNL1        0.0244
     18 S          14.1410   -3.8690    5.0030 S.O     1  UNL1        0.0533
     19 C          14.4550   -3.5580    3.2470 C.3     1  UNL1        0.1297
     20 H          15.2531   -4.2250    2.8833 H       1  UNL1        0.0666
     21 CA         14.2560   -2.1940    2.5600 C.3     1  UNL1        0.1301
     22 HA         14.8058   -2.1200    1.6161 H       1  UNL1        0.0623
     23 N          14.3180   -0.9860    3.3330 N.am    1  UNL1       -0.3014
     24 H          13.7535   -1.0201    4.1773 H       1  UNL1        0.1495
     25 C          14.9890    0.1200    2.9310 C.2     1  UNL1        0.2180
     26 O          15.6650    0.3130    1.9230 O.2     1  UNL1       -0.2754
     27 C          14.9000    1.2820    3.9200 C.3     1  UNL1        0.0491
     28 H          14.3836    1.0079    4.8508 H       1  UNL1        0.0407
     29 H          14.3046    2.0692    3.4318 H       1  UNL1        0.0407
     30 C          16.3010    1.7990    4.2240 C.ar    1  UNL1       -0.0386
     31 C          16.8270    2.9210    3.6010 C.ar    1  UNL1       -0.0581
     32 H          16.2472    3.4402    2.8108 H       1  UNL1        0.0620
     33 C          18.0650    3.4310    4.0050 C.ar    1  UNL1       -0.0615
     34 H          18.4634    4.3517    3.5439 H       1  UNL1        0.0618
     35 C          18.8150    2.7570    4.9800 C.ar    1  UNL1       -0.0617
     36 H          19.7984    3.1790    5.2793 H       1  UNL1        0.0618
     37 C          18.3160    1.6020    5.5910 C.ar    1  UNL1       -0.0615
     38 H          18.8868    1.0485    6.3556 H       1  UNL1        0.0618
     39 C          17.0490    1.1580    5.2140 C.ar    1  UNL1       -0.0581
     40 H          16.6253    0.2330    5.6679 H       1  UNL1        0.0620
     41 O          13.2820   -2.7090    5.3380 O.2     1  UNL1       -0.2547
@<TRIPOS>BOND
     1     1     2    2
     2     2     3   am
     3     2    21    1
     4     3     4    1
     5     3    19    1
     6     4     6    1
     7     4     9    1
     8     4     5    1
     9     6     7   ar
    10     6     8   ar
    11     9    10    1
    12     9    14    1
    13     9    18    1
    14    10    11    1
    15    10    12    1
    16    10    13    1
    17    14    15    1
    18    14    16    1
    19    14    17    1
    20    18    19    1
    21    18    41    2
    22    19    21    1
    23    19    20    1
    24    21    23    1
    25    21    22    1
    26    23    25   am
    27    23    24    1
    28    25    26    2
    29    25    27    1
    30    27    30    1
    31    27    28    1
    32    27    29    1
    33    30    31   ar
    34    30    39   ar
    35    31    33   ar
    36    31    32    1
    37    33    35   ar
    38    33    34    1
    39    35    37   ar
    40    35    36    1
    41    37    39   ar
    42    37    38    1
    43    39    40    1
