@<TRIPOS>MOLECULE
LIGAND
 37 39 0 0 0
SMALL
GASTEIGER

@<TRIPOS>ATOM
      1 C           0.7260   68.8480   60.5950 C.ar    1  UNL1        0.2489
      2 O           0.2650   69.3310   59.5260 O.2     1  UNL1       -0.2679
      3 N           2.0070   68.2910   60.6140 N.ar    1  UNL1       -0.3260
      4 H           2.5413   68.2952   59.7334 H       1  UNL1        0.1686
      5 C           0.0030   68.8250   61.8590 C.ar    1  UNL1        0.0030
      6 H          -0.9998   69.2484   61.9153 H       1  UNL1        0.0672
      7 C           0.5760   68.2720   62.9860 C.ar    1  UNL1       -0.0529
      8 H           0.0044   68.2690   63.9141 H       1  UNL1        0.0622
      9 C           1.9080   67.6940   62.9880 C.ar    1  UNL1       -0.0351
     10 C           2.6240   67.7230   61.7490 C.ar    1  UNL1        0.0220
     11 C           4.0170   67.1690   61.5600 C.3     1  UNL1       -0.0023
     12 H           4.6753   67.9380   61.1205 H       1  UNL1        0.0336
     13 H           3.9624   66.3503   60.8213 H       1  UNL1        0.0336
     14 C           4.6570   66.5980   62.9020 C.3     1  UNL1        0.0027
     15 H           5.4199   65.8563   62.6236 H       1  UNL1        0.0391
     16 C           5.3760   67.6940   63.7160 C.2     1  UNL1       -0.0776
     17 H           6.4151   67.9234   63.4800 H       1  UNL1        0.0578
     18 C           4.3520   63.5530   63.7420 C.3     1  UNL1       -0.0466
     19 H           3.7578   62.7306   63.3071 H       1  UNL1        0.0272
     20 H           5.1113   63.8342   63.0010 H       1  UNL1        0.0272
     21 H           4.8808   63.1379   64.6181 H       1  UNL1        0.0272
     22 C           3.4630   64.6910   64.1430 C.2     1  UNL1       -0.0883
     23 H           2.6323   64.4394   64.8023 H       1  UNL1        0.0569
     24 C           3.5630   65.9670   63.7940 C.2     1  UNL1       -0.0734
     25 C           2.5690   67.0470   64.2830 C.3     1  UNL1       -0.0173
     26 N           1.5080   66.4560   65.1460 N.3     1  UNL1        0.3872
     27 H           1.8992   65.9772   65.9465 H       1  UNL1       -0.0883
     28 H           0.8713   67.1587   65.4955 H       1  UNL1       -0.0883
     29 H           0.9405   65.7814   64.6471 H       1  UNL1       -0.0883
     30 C           3.3210   68.1300   65.1110 C.3     1  UNL1       -0.0345
     31 H           3.3629   67.8280   66.1783 H       1  UNL1        0.0302
     32 H           2.7755   69.0931   65.1107 H       1  UNL1        0.0302
     33 C           4.7650   68.3870   64.7180 C.2     1  UNL1       -0.0767
     34 C           5.4530   69.4590   65.5360 C.3     1  UNL1       -0.0438
     35 H           6.4938   69.6053   65.2132 H       1  UNL1        0.0274
     36 H           4.9292   70.4252   65.4382 H       1  UNL1        0.0274
     37 H           5.4640   69.1931   66.6065 H       1  UNL1        0.0274
@<TRIPOS>BOND
     1     1     2    2
     2     1     3   ar
     3     1     5   ar
     4     3    10   ar
     5     3     4    1
     6     5     7   ar
     7     5     6    1
     8     7     9   ar
     9     7     8    1
    10     9    10   ar
    11     9    25    1
    12    10    11    1
    13    11    14    1
    14    11    12    1
    15    11    13    1
    16    14    16    1
    17    14    24    1
    18    14    15    1
    19    16    33    2
    20    16    17    1
    21    18    22    1
    22    18    19    1
    23    18    20    1
    24    18    21    1
    25    22    24    2
    26    22    23    1
    27    24    25    1
    28    25    26    1
    29    25    30    1
    30    26    27    1
    31    26    28    1
    32    26    29    1
    33    30    33    1
    34    30    31    1
    35    30    32    1
    36    33    34    1
    37    34    35    1
    38    34    36    1
    39    34    37    1
