@<TRIPOS>MOLECULE
LIGAND
 27 28 0 0 0
SMALL
GASTEIGER

@<TRIPOS>ATOM
      1 C          28.3480   46.0370   16.7830 C.ar    1  UNL1       -0.0566
      2 C          27.8990   45.5320   15.5700 C.ar    1  UNL1       -0.0351
      3 C          27.8220   44.1470   15.3850 C.ar    1  UNL1        0.1052
      4 C          28.1930   43.2860   16.4100 C.ar    1  UNL1       -0.0337
      5 S          27.2610   43.4900   13.8470 S.O2    1  UNL1        0.0560
      6 C          28.6420   43.7900   17.6160 C.ar    1  UNL1       -0.0595
      7 C          28.7200   45.1740   17.8070 C.ar    1  UNL1       -0.0477
      8 O          27.4850   44.4300   12.7700 O.2     1  UNL1       -0.1533
      9 O          25.8660   43.1330   13.8730 O.2     1  UNL1       -0.1533
     10 N          28.1050   42.1870   13.5730 N.3     1  UNL1       -0.2035
     11 C          28.9650   42.8430   18.7440 C.3     1  UNL1       -0.0668
     12 C          29.2110   44.8480   20.1940 C.3     1  UNL1       -0.0889
     13 C          29.4880   45.7050   18.9780 C.3     1  UNL1       -0.0428
     14 N          29.7000   43.4830   19.8600 N.3     1  UNL1        0.3819
     15 H          28.4090   47.1149   16.9328 H       1  UNL1        0.0621
     16 H          27.6085   46.2098   14.7673 H       1  UNL1        0.0637
     17 H          28.1297   42.2079   16.2625 H       1  UNL1        0.0639
     18 H          27.6508   41.3540   13.1720 H       1  UNL1        0.1442
     19 H          29.1107   42.1687   13.7948 H       1  UNL1        0.1442
     20 H          29.5562   41.9835   18.3984 H       1  UNL1        0.0102
     21 H          28.0277   42.4525   19.1738 H       1  UNL1        0.0102
     22 H          28.1376   44.7876   20.4260 H       1  UNL1        0.0057
     23 H          29.7495   45.1928   21.0867 H       1  UNL1        0.0057
     24 H          29.1817   46.7402   19.1914 H       1  UNL1        0.0295
     25 H          30.5702   45.7451   18.7545 H       1  UNL1        0.0295
     26 H          30.6824   43.5596   19.6294 H       1  UNL1       -0.0855
     27 H          29.6779   42.8767   20.6708 H       1  UNL1       -0.0855
@<TRIPOS>BOND
     1     1     2   ar
     2     1     7   ar
     3     2     3   ar
     4     3     4   ar
     5     3     5    1
     6     4     6   ar
     7     5     8    2
     8     5     9    2
     9     5    10    1
    10     6     7   ar
    11     6    11    1
    12     7    13    1
    13    11    14    1
    14    12    13    1
    15    12    14    1
    16     1    15    1
    17     2    16    1
    18     4    17    1
    19    10    18    1
    20    10    19    1
    21    11    20    1
    22    11    21    1
    23    12    22    1
    24    12    23    1
    25    13    24    1
    26    13    25    1
    27    14    26    1
    28    14    27    1
