@<TRIPOS>MOLECULE
LIGAND
 33 35 0 0 0
SMALL
GASTEIGER

@<TRIPOS>ATOM
      1 O5*        15.6700   23.5980   10.0340 O.3     1  UNL1       -0.3924
      2 C5*        16.2980   24.8650    9.8470 C.3     1  UNL1        0.0730
      3 C4*        15.4040   26.0780   10.2040 C.3     1  UNL1        0.1126
      4 O4*        15.2460   25.8080   11.6320 O.3     1  UNL1       -0.3457
      5 C3*        16.5030   27.1360   10.0180 C.3     1  UNL1        0.1135
      6 O3*        15.9340   28.1520    9.1910 O.3     1  UNL1       -0.3864
      7 C2*        16.9130   27.5680   11.4550 C.3     1  UNL1        0.1285
      8 O2*        16.8170   28.9510   11.8080 O.3     1  UNL1       -0.3847
      9 C1*        16.0220   26.7420   12.3880 C.3     1  UNL1        0.1655
     10 N          16.6310   26.2200   13.6550 N.ar    1  UNL1       -0.3008
     11 C          17.2020   26.9880   14.7000 C.ar    1  UNL1        0.0992
     12 N          17.6920   26.2980   15.7120 N.ar    1  UNL1       -0.2322
     13 C          17.4420   24.9680   15.3340 C.ar    1  UNL1        0.1284
     14 C          17.7230   23.6890   15.9660 C.ar    1  UNL1        0.1438
     15 N          18.3310   23.5710   17.1430 N.pl3   1  UNL1       -0.3414
     16 N          17.3320   22.5450   15.2950 N.ar    1  UNL1       -0.2384
     17 C          16.7060   22.6260   14.0880 C.ar    1  UNL1        0.0318
     18 C          16.3840   23.7440   13.3880 C.ar    1  UNL1       -0.0177
     19 C          16.7870   24.9050   14.0730 C.ar    1  UNL1        0.0756
     20 H5*        14.6562   23.7317   10.1576 H       1  UNL1        0.2095
     21 H5*1       16.6492   24.8893    8.8002 H       1  UNL1        0.0584
     22 H5*2       17.1876   24.8629   10.5033 H       1  UNL1        0.0584
     23 H4*        14.4562   26.2020    9.6745 H       1  UNL1        0.0647
     24 H3*        17.3989   26.7932    9.4607 H       1  UNL1        0.0647
     25 H3*        16.4877   29.0162    9.2779 H       1  UNL1        0.2100
     26 H2*        17.9667   27.2634   11.6093 H       1  UNL1        0.0665
     27 H2*        17.7326   29.4039   11.6758 H       1  UNL1        0.2101
     28 H1*        15.2716   27.4694   12.7524 H       1  UNL1        0.0866
     29 H          17.2342   28.0771   14.6697 H       1  UNL1        0.1030
     30 H          18.5037   22.6373   17.5421 H       1  UNL1        0.1438
     31 H          18.6292   24.4133   17.6553 H       1  UNL1        0.1438
     32 H          16.4298   21.6773   13.6278 H       1  UNL1        0.0831
     33 H          15.8794   23.7423   12.4219 H       1  UNL1        0.0654
@<TRIPOS>BOND
     1     1     2    1
     2     2     3    1
     3     3     4    1
     4     3     5    1
     5     4     9    1
     6     5     6    1
     7     5     7    1
     8     7     8    1
     9     7     9    1
    10     9    10    1
    11    10    11   ar
    12    10    19   ar
    13    11    12   ar
    14    12    13   ar
    15    13    14   ar
    16    13    19   ar
    17    14    15    1
    18    14    16   ar
    19    16    17   ar
    20    17    18   ar
    21    18    19   ar
    22     1    20    1
    23     2    21    1
    24     2    22    1
    25     3    23    1
    26     5    24    1
    27     6    25    1
    28     7    26    1
    29     8    27    1
    30     9    28    1
    31    11    29    1
    32    15    30    1
    33    15    31    1
    34    17    32    1
    35    18    33    1
