@<TRIPOS>MOLECULE
LIGAND
 23 24 0 0 0
SMALL
GASTEIGER

@<TRIPOS>ATOM
      1 C          -8.3500    8.3090   19.9180 C.3     1  UNL1        0.0512
      2 N          -9.1070    9.0370   19.0730 N.pl3   1  UNL1       -0.3218
      3 C          -9.1830    8.8080   17.7070 C.ar    1  UNL1        0.1535
      4 N          -9.9130    9.5310   16.9810 N.ar    1  UNL1       -0.1991
      5 C         -10.0420    9.3670   15.6090 C.ar    1  UNL1        0.1948
      6 N         -10.7600   10.0850   14.9250 N.pl3   1  UNL1       -0.3289
      7 H         -10.8268    9.9285   13.9092 H       1  UNL1        0.1451
      8 H         -11.2973   10.8454   15.3654 H       1  UNL1        0.1451
      9 C          -8.4450    7.7730   17.1430 C.ar    1  UNL1        0.1677
     10 C          -8.5060    7.5200   15.7530 C.ar    1  UNL1        0.2800
     11 N          -9.2940    8.3350   15.1160 N.ar    1  UNL1       -0.2935
     12 H          -9.3640    8.1816   14.0999 H       1  UNL1        0.1716
     13 O          -7.8600    6.6070   15.2360 O.2     1  UNL1       -0.2654
     14 N          -7.6100    6.9510   18.0030 N.2     1  UNL1       -0.2438
     15 CA         -7.4910    7.1060   19.2760 C.2     1  UNL1        0.0620
     16 C          -6.6900    6.3440   20.2100 C.3     1  UNL1        0.0838
     17 H1         -7.3352    5.7480   20.8793 H       1  UNL1        0.0620
     18 H2         -6.0734    7.0080   20.8328 H       1  UNL1        0.0620
     19 O          -5.7980    5.4760   19.5280 O.3     1  UNL1       -0.3892
     20 H          -6.1757    5.2590   18.5946 H       1  UNL1        0.2099
     21 H          -8.9629    7.8403   20.7141 H       1  UNL1        0.0524
     22 H          -7.6140    8.9427   20.4529 H       1  UNL1        0.0524
     23 H          -9.6628    9.8103   19.4655 H       1  UNL1        0.1479
@<TRIPOS>BOND
     1     1     2    1
     2     1    15    1
     3     2     3    1
     4     3     4   ar
     5     3     9   ar
     6     4     5   ar
     7     5     6    1
     8     5    11   ar
     9     6     7    1
    10     6     8    1
    11     9    10   ar
    12     9    14    1
    13    10    11   ar
    14    10    13    2
    15    11    12    1
    16    14    15    2
    17    15    16    1
    18    16    19    1
    19    16    17    1
    20    16    18    1
    21    19    20    1
    22     1    21    1
    23     1    22    1
    24     2    23    1
