@<TRIPOS>MOLECULE
LIGAND
 52 54 0 0 0
SMALL
GASTEIGER

@<TRIPOS>ATOM
      1 N          66.9780   39.8920   23.3300 N.ar    0  UNK0       -0.2340
      2 C          67.3880   39.2730   24.4780 C.ar    0  UNK0        0.1072
      3 C          67.7840   37.8630   24.4860 C.3     0  UNK0       -0.0064
      4 N          67.4330   39.9620   25.6440 N.ar    0  UNK0       -0.3106
      5 C          67.0840   41.2730   25.7090 C.ar    0  UNK0        0.2592
      6 O          67.1330   41.8990   26.9260 O.2     0  UNK0       -0.2672
      7 C          66.6680   41.9700   24.5500 C.ar    0  UNK0        0.0650
      8 C          66.3300   43.3470   24.5560 C.ar    0  UNK0       -0.0427
      9 C          65.9320   44.0100   23.3390 C.ar    0  UNK0       -0.0293
     10 C          65.8690   43.2550   22.1270 C.ar    0  UNK0       -0.0550
     11 C          66.2110   41.8680   22.1190 C.ar    0  UNK0       -0.0352
     12 C          66.6210   41.2130   23.3270 C.ar    0  UNK0        0.0781
     13 C          65.5960   45.4730   23.2820 C.3     0  UNK0        0.0374
     14 N          65.7090   46.2410   24.5570 N.pl3   0  UNK0       -0.3233
     15 C          69.3670   46.7260   25.8120 C.ar    0  UNK0        0.0756
     16 S          68.4770   46.0440   24.5450 S.2     0  UNK0       -0.0691
     17 C          66.9250   46.5230   25.1630 C.ar    0  UNK0        0.0687
     18 C          67.0930   47.2120   26.3510 C.ar    0  UNK0       -0.0326
     19 C          68.5440   47.3340   26.7360 C.ar    0  UNK0       -0.0407
     20 C          70.8160   46.6910   25.9020 C.2     0  UNK0        0.2514
     21 O          71.4640   46.1100   25.0170 O.2     0  UNK0       -0.2696
     22 N          71.4040   47.2920   26.9430 N.am    1  GLU1       -0.2978
     23 CA         72.8700   47.3480   27.1840 C.3     1  GLU1        0.1254
     24 CB         73.5690   48.6320   26.7310 C.3     1  GLU1       -0.0137
     25 CG         73.1130   49.4580   25.5580 C.3     1  GLU1        0.0514
     26 CD         74.2150   50.4540   25.1820 C.2     1  GLU1        0.3561
     27 OE1        74.8320   51.0630   26.0680 O.co2   1  GLU1       -0.2464
     28 OE2        74.4740   50.6460   23.9890 O.co2   1  GLU1       -0.2464
     29 C          73.0750   47.2200   28.6850 C.2     1  GLU1        0.3759
     30 O          72.1410   47.5200   29.4490 O.co2   1  GLU1       -0.2443
     31 OXT        74.1640   46.8260   29.1040 O.co2   1  GLU1       -0.2443
     32 C          64.4420   46.6850   25.1540 C.3     0  UNK0        0.0015
     33 H          67.1342   37.2682   25.1459 H       0  UNK0        0.0307
     34 H          67.7254   37.4179   23.4800 H       0  UNK0        0.0307
     35 H          68.8214   37.7423   24.8351 H       0  UNK0        0.0307
     36 H          67.7391   39.4801   26.5013 H       0  UNK0        0.1700
     37 H          66.3714   43.9093   25.4888 H       0  UNK0        0.0629
     38 H          65.5578   43.7410   21.2023 H       0  UNK0        0.0621
     39 H          66.1599   41.3035   21.1880 H       0  UNK0        0.0639
     40 H          64.5748   45.5968   22.8904 H       0  UNK0        0.0513
     41 H          66.2533   45.9483   22.5331 H       0  UNK0        0.0513
     42 H          66.2710   47.6191   26.9398 H       0  UNK0        0.0642
     43 H          68.8993   47.8401   27.6336 H       0  UNK0        0.0631
     44 H          70.7924   47.7524   27.6321 H       1  GLU1        0.1499
     45 HA         73.3400   46.4983   26.6714 H       1  GLU1        0.0616
     46 HB1        74.6248   48.3509   26.5516 H       1  GLU1        0.0294
     47 HB2        73.6165   49.3196   27.6015 H       1  GLU1        0.0294
     48 HG1        72.1974   50.0105   25.8201 H       1  GLU1        0.0380
     49 HG2        72.8689   48.8401   24.6788 H       1  GLU1        0.0380
     50 H          64.3230   47.7778   25.0770 H       0  UNK0        0.0428
     51 H          63.5945   46.2059   24.6471 H       0  UNK0        0.0428
     52 H          64.3926   46.4027   26.2158 H       0  UNK0        0.0428
@<TRIPOS>BOND
     1     1     2   ar
     2     1    12   ar
     3     2     3    1
     4     2     4   ar
     5     4     5   ar
     6     5     6    2
     7     5     7   ar
     8     7     8   ar
     9     7    12   ar
    10     8     9   ar
    11     9    10   ar
    12     9    13    1
    13    10    11   ar
    14    11    12   ar
    15    13    14    1
    16    14    17    1
    17    14    32    1
    18    15    16   ar
    19    15    19   ar
    20    15    20    1
    21    16    17   ar
    22    17    18   ar
    23    18    19   ar
    24    20    21    2
    25    20    22   am
    26    22    23    1
    27    23    24    1
    28    23    29    1
    29    24    25    1
    30    25    26    1
    31    26    27   ar
    32    26    28   ar
    33    29    30   ar
    34    29    31   ar
    35     3    33    1
    36     3    34    1
    37     3    35    1
    38     4    36    1
    39     8    37    1
    40    10    38    1
    41    11    39    1
    42    13    40    1
    43    13    41    1
    44    18    42    1
    45    19    43    1
    46    22    44    1
    47    23    45    1
    48    24    46    1
    49    24    47    1
    50    25    48    1
    51    25    49    1
    52    32    50    1
    53    32    51    1
    54    32    52    1
