@<TRIPOS>MOLECULE
LIGAND
 55 57 0 0 0
SMALL
GASTEIGER

@<TRIPOS>ATOM
      1 C          34.5900   -7.3020  -13.1620 C.ar    1  UNL1        0.0082
      2 C          34.7220   -8.6540  -12.9220 C.ar    1  UNL1        0.0503
      3 C          35.6320   -9.4120  -13.6910 C.ar    1  UNL1       -0.0376
      4 C          36.3980   -8.7790  -14.6960 C.ar    1  UNL1       -0.0598
      5 C          36.2530   -7.4010  -14.9230 C.ar    1  UNL1       -0.0611
      6 C          35.3460   -6.6540  -14.1560 C.ar    1  UNL1       -0.0520
      7 C          33.5600   -6.7290  -12.2210 C.ar    1  UNL1        0.0147
      8 C          33.2020   -7.8280  -11.5240 C.ar    1  UNL1        0.0507
      9 N          33.9300   -9.0170  -11.9660 N.ar    1  UNL1       -0.3372
     10 C          32.0550   -3.3330  -13.1100 C.ar    1  UNL1       -0.0259
     11 C          32.5040   -4.6520  -13.2230 C.ar    1  UNL1       -0.0512
     12 C          33.0830   -5.2880  -12.1180 C.ar    1  UNL1       -0.0151
     13 C          33.2080   -4.5980  -10.9020 C.ar    1  UNL1       -0.0512
     14 C          32.7590   -3.2800  -10.7910 C.ar    1  UNL1       -0.0259
     15 C          32.1810   -2.6500  -11.8980 C.ar    1  UNL1        0.1234
     16 F          31.7350   -1.3640  -11.7930 F       1  UNL1       -0.2055
     17 O          32.4980   -3.2890   -4.9480 O.co2   1  UNL1       -0.2463
     18 O          34.0220   -3.8720   -6.5480 O.co2   1  UNL1       -0.2463
     19 O          30.8900   -5.3120   -7.3940 O.3     1  UNL1       -0.3911
     20 C          33.0070   -4.1330   -5.6760 C.2     1  UNL1        0.3585
     21 C          32.5760   -5.5940   -5.6880 C.3     1  UNL1        0.0752
     22 C          32.0460   -6.0870   -7.0450 C.3     1  UNL1        0.0681
     23 C          31.6420   -7.5660   -6.9700 C.3     1  UNL1        0.0034
     24 C          31.1070   -8.1150   -8.2960 C.3     1  UNL1        0.0761
     25 C          32.2290   -8.2910   -9.2940 C.2     1  UNL1       -0.0539
     26 C          32.2660   -7.7600  -10.5290 C.2     1  UNL1       -0.0391
     27 C          33.6970  -10.4120  -11.4090 C.3     1  UNL1        0.0295
     28 C          33.4460  -11.4490  -12.5080 C.3     1  UNL1       -0.0445
     29 C          34.8620  -10.8430  -10.4960 C.3     1  UNL1       -0.0445
     30 O          30.4700   -9.3470   -8.0030 O.3     1  UNL1       -0.3877
     31 H          35.7432  -10.4811  -13.5102 H       1  UNL1        0.0638
     32 H          37.1003   -9.3597  -15.2940 H       1  UNL1        0.0618
     33 H          36.8455   -6.9111  -15.6957 H       1  UNL1        0.0618
     34 H          35.2285   -5.5841  -14.3283 H       1  UNL1        0.0624
     35 H          31.6054   -2.8362  -13.9698 H       1  UNL1        0.0646
     36 H          32.4036   -5.1841  -14.1690 H       1  UNL1        0.0624
     37 H          33.6573   -5.0927  -10.0409 H       1  UNL1        0.0624
     38 H          32.8585   -2.7451   -9.8465 H       1  UNL1        0.0646
     39 H          31.1374   -4.3122   -7.4070 H       1  UNL1        0.2098
     40 H          31.8099   -5.7809   -4.9178 H       1  UNL1        0.0404
     41 H          33.4663   -6.1864   -5.4168 H       1  UNL1        0.0404
     42 H          32.8244   -5.9552   -7.8209 H       1  UNL1        0.0599
     43 H          30.8541   -7.6561   -6.2007 H       1  UNL1        0.0318
     44 H          32.4896   -8.1831   -6.6228 H       1  UNL1        0.0318
     45 H          30.3502   -7.4228   -8.7093 H       1  UNL1        0.0638
     46 H          33.0795   -8.8995   -8.9866 H       1  UNL1        0.0598
     47 H          31.3884   -7.1660  -10.7840 H       1  UNL1        0.0636
     48 H          32.7807  -10.3499  -10.8030 H       1  UNL1        0.0522
     49 H          32.9961  -12.3407  -12.0387 H       1  UNL1        0.0249
     50 H          32.7317  -11.0805  -13.2615 H       1  UNL1        0.0249
     51 H          34.3477  -11.7970  -13.0236 H       1  UNL1        0.0249
     52 H          34.6272  -11.8229  -10.0500 H       1  UNL1        0.0249
     53 H          35.8028  -10.9367  -11.0580 H       1  UNL1        0.0249
     54 H          35.0252  -10.1265   -9.6764 H       1  UNL1        0.0249
     55 H          29.4717   -9.1809   -7.8116 H       1  UNL1        0.2102
@<TRIPOS>BOND
     1     1     2   ar
     2     1     6   ar
     3     1     7   ar
     4     2     3   ar
     5     2     9   ar
     6     3     4   ar
     7     4     5   ar
     8     5     6   ar
     9     7     8   ar
    10     7    12    1
    11     8     9   ar
    12     8    26    1
    13     9    27    1
    14    10    11   ar
    15    10    15   ar
    16    11    12   ar
    17    12    13   ar
    18    13    14   ar
    19    14    15   ar
    20    15    16    1
    21    17    20   ar
    22    18    20   ar
    23    19    22    1
    24    20    21    1
    25    21    22    1
    26    22    23    1
    27    23    24    1
    28    24    25    1
    29    24    30    1
    30    25    26    2
    31    27    28    1
    32    27    29    1
    33     3    31    1
    34     4    32    1
    35     5    33    1
    36     6    34    1
    37    10    35    1
    38    11    36    1
    39    13    37    1
    40    14    38    1
    41    19    39    1
    42    21    40    1
    43    21    41    1
    44    22    42    1
    45    23    43    1
    46    23    44    1
    47    24    45    1
    48    25    46    1
    49    26    47    1
    50    27    48    1
    51    28    49    1
    52    28    50    1
    53    28    51    1
    54    29    52    1
    55    29    53    1
    56    29    54    1
    57    30    55    1
