@<TRIPOS>MOLECULE
LIGAND
 28 29 0 0 0
SMALL
GASTEIGER

@<TRIPOS>ATOM
      1 C          31.0850   66.8500    6.1040 C.3     1  UNL1        0.0457
      2 H          31.6003   65.9434    5.7308 H       1  UNL1        0.0578
      3 O          31.6160   67.9930    5.4120 O.3     1  UNL1       -0.3933
      4 H          32.5148   68.2644    5.8355 H       1  UNL1        0.2097
      5 C          31.2910   67.0030    7.6490 C.3     1  UNL1       -0.0224
      6 H          30.7288   67.8814    8.0075 H       1  UNL1        0.0145
      7 N          30.7310   65.8070    8.3070 N.3     1  UNL1        0.3867
      8 H          31.1370   65.0173    7.8142 H       1  UNL1       -0.0811
      9 C          29.2560   65.6700    8.1360 C.3     1  UNL1       -0.0898
     10 H          28.7689   66.5672    8.5438 H       1  UNL1        0.0059
     11 H          28.9190   64.7977    8.7140 H       1  UNL1        0.0059
     12 C          28.9520   65.4970    6.6230 C.3     1  UNL1       -0.0657
     13 H          27.8603   65.4465    6.4882 H       1  UNL1        0.0248
     14 H          29.3621   64.5409    6.2524 H       1  UNL1        0.0248
     15 C          29.5540   66.6860    5.8180 C.3     1  UNL1       -0.0300
     16 H          29.3861   66.5562    4.7331 H       1  UNL1        0.0289
     17 H          29.0406   67.6253    6.0955 H       1  UNL1        0.0289
     18 C          31.2840   65.7130    9.6520 C.3     1  UNL1       -0.0609
     19 H          31.3552   64.6593    9.9487 H       1  UNL1        0.0085
     20 H          30.5891   66.2135   10.3463 H       1  UNL1        0.0085
     21 C          32.6480   66.4480    9.5970 C.3     1  UNL1        0.0651
     22 H          32.6926   67.2188   10.3873 H       1  UNL1        0.0599
     23 O          33.7150   65.5340    9.8330 O.3     1  UNL1       -0.3912
     24 H          33.3496   64.6924   10.3010 H       1  UNL1        0.2098
     25 C          32.7550   67.0820    8.1610 C.3     1  UNL1        0.0698
     26 H          33.1112   68.1250    8.1588 H       1  UNL1        0.0603
     27 O          33.6410   66.3140    7.3190 O.3     1  UNL1       -0.3908
     28 H          33.3355   66.3904    6.3383 H       1  UNL1        0.2098
@<TRIPOS>BOND
     1     1     3    1
     2     1     5    1
     3     1    15    1
     4     1     2    1
     5     3     4    1
     6     5     7    1
     7     5    25    1
     8     5     6    1
     9     7     9    1
    10     7    18    1
    11     7     8    1
    12     9    12    1
    13     9    10    1
    14     9    11    1
    15    12    15    1
    16    12    13    1
    17    12    14    1
    18    15    16    1
    19    15    17    1
    20    18    21    1
    21    18    19    1
    22    18    20    1
    23    21    23    1
    24    21    25    1
    25    21    22    1
    26    23    24    1
    27    25    27    1
    28    25    26    1
    29    27    28    1
