@<TRIPOS>MOLECULE
LIGAND
 32 34 0 0 0
SMALL
GASTEIGER

@<TRIPOS>ATOM
      1 C           7.9580   36.7200   19.3390 C.ar    1  UNL1        0.1165
      2 C           8.9510   35.8750   18.7740 C.ar    1  UNL1        0.1175
      3 C           8.5400   34.6280   18.2160 C.2     1  UNL1        0.3278
      4 N           7.2920   34.2150   18.2740 N.2     1  UNL1        0.0237
      5 C           6.3290   34.9700   18.8520 C.cat   1  UNL1        0.4213
      6 N           6.5800   36.2200   19.3310 N.2     1  UNL1       -0.2365
      7 H           5.8106   36.8071   19.6835 H       1  UNL1        0.2655
      8 N           9.2860   33.6710   17.6330 N.pl3   1  UNL1       -0.2458
      9 H           8.8379   32.8157   17.2745 H       1  UNL1        0.2884
     10 H          10.3048   33.7942   17.5453 H       1  UNL1        0.2884
     11 C           8.2440   37.9530   19.9000 C.ar    1  UNL1       -0.0223
     12 H           7.4514   38.5647   20.3309 H       1  UNL1        0.0652
     13 C           9.5660   38.3970   19.9030 C.ar    1  UNL1       -0.0574
     14 H           9.8133   39.3587   20.3525 H       1  UNL1        0.0619
     15 C          10.5870   37.6080   19.3270 C.ar    1  UNL1       -0.0469
     16 H          11.6087   37.9863   19.2948 H       1  UNL1        0.0629
     17 C          10.3120   36.4060   18.8230 C.ar    1  UNL1        0.0309
     18 N           5.0510   34.5900   18.9540 N.pl3   1  UNL1       -0.2416
     19 H           4.3638   35.2102   19.4057 H       1  UNL1        0.2421
     20 H           4.7538   33.6771   18.5808 H       1  UNL1        0.2421
     21 S          11.6410   35.3450   18.2390 S.3     1  UNL1       -0.0885
     22 C          13.0000   36.4830   18.0480 C.ar    1  UNL1        0.0128
     23 C          12.9820   37.3800   17.0130 C.ar    1  UNL1       -0.0480
     24 H          12.1259   37.4095   16.3390 H       1  UNL1        0.0629
     25 C          14.0670   38.2710   16.8100 C.ar    1  UNL1       -0.0607
     26 H          14.0369   39.0374   16.0355 H       1  UNL1        0.0618
     27 C          15.1960   38.1200   17.6620 C.ar    1  UNL1       -0.0617
     28 H          16.0747   38.7392   17.4812 H       1  UNL1        0.0618
     29 C          15.2230   37.2210   18.7080 C.ar    1  UNL1       -0.0607
     30 H          16.0820   37.1925   19.3784 H       1  UNL1        0.0618
     31 C          14.1200   36.3210   18.9160 C.ar    1  UNL1       -0.0480
     32 H          14.1392   35.5577   19.6938 H       1  UNL1        0.0629
@<TRIPOS>BOND
     1     1     2   ar
     2     1     6    2
     3     1    11   ar
     4     2     3    2
     5     2    17   ar
     6     3     4    1
     7     3     8    1
     8     4     5    2
     9     5     6    1
    10     5    18    1
    11     6     7    1
    12     8     9    1
    13     8    10    1
    14    11    13   ar
    15    11    12    1
    16    13    15   ar
    17    13    14    1
    18    15    17   ar
    19    15    16    1
    20    17    21    1
    21    18    19    1
    22    18    20    1
    23    21    22    1
    24    22    23   ar
    25    22    31   ar
    26    23    25   ar
    27    23    24    1
    28    25    27   ar
    29    25    26    1
    30    27    29   ar
    31    27    28    1
    32    29    31   ar
    33    29    30    1
    34    31    32    1
