@<TRIPOS>MOLECULE
LIGAND
 35 36 0 0 0
SMALL
GASTEIGER

@<TRIPOS>ATOM
      1 C          19.3390   39.6510   23.0300 C.3     1  UNL1       -0.0046
      2 H          19.0139   40.6371   23.3968 H       1  UNL1        0.0308
      3 H          18.4414   39.1321   22.6605 H       1  UNL1        0.0308
      4 H          19.7515   39.0859   23.8772 H       1  UNL1        0.0308
      5 N          23.9870   39.0710   21.4980 N.pl3   1  UNL1       -0.3428
      6 H          24.7149   39.1430   20.7728 H       1  UNL1        0.1437
      7 H          24.2242   38.7056   22.4314 H       1  UNL1        0.1437
      8 C          25.6750   40.2260   16.9580 C.3     1  UNL1       -0.0235
      9 H          25.8591   40.7149   15.9867 H       1  UNL1        0.0292
     10 H          26.5701   39.6299   17.1991 H       1  UNL1        0.0292
     11 H          24.8487   39.5195   16.7906 H       1  UNL1        0.0292
     12 O          28.1250   44.5160   15.9890 O.3     1  UNL1       -0.3947
     13 H          28.6648   45.2476   16.4731 H       1  UNL1        0.2094
     14 C          27.0400   44.1140   16.8020 C.3     1  UNL1        0.0487
     15 H          26.1581   44.0310   16.1454 H       1  UNL1        0.0560
     16 H          26.8215   44.8859   17.5603 H       1  UNL1        0.0560
     17 C          27.3760   42.7450   17.4460 C.3     1  UNL1        0.0035
     18 H          28.2669   42.8440   18.0886 H       1  UNL1        0.0341
     19 H          27.6283   42.0283   16.6481 H       1  UNL1        0.0341
     20 C          24.3100   42.1240   19.7210 C.2     1  UNL1        0.0432
     21 H          23.5150   42.1594   20.4659 H       1  UNL1        0.0887
     22 S          25.5530   43.3650   19.6040 S.3     1  UNL1       -0.0820
     23 C          26.1650   42.3590   18.2430 C.2     1  UNL1        0.0123
     24 C          25.3950   41.2550   18.0460 C.2     1  UNL1        0.0262
     25 N          24.4090   41.1850   18.8730 N.2     1  UNL1       -0.3398
     26 C          23.4190   40.0960   18.8720 C.3     1  UNL1        0.0532
     27 H          23.9729   39.1383   18.8536 H       1  UNL1        0.0543
     28 H          22.8981   40.1473   17.8976 H       1  UNL1        0.0543
     29 C          22.6750   39.4700   21.2150 C.ar    1  UNL1        0.1245
     30 N          21.6930   39.3680   22.2080 N.ar    1  UNL1       -0.2177
     31 C          20.3740   39.7670   21.9510 C.ar    1  UNL1        0.1280
     32 N          20.0340   40.2820   20.6810 N.ar    1  UNL1       -0.2401
     33 C          21.0180   40.3880   19.6760 C.ar    1  UNL1        0.0378
     34 H          20.7532   40.7799   18.6940 H       1  UNL1        0.0834
     35 C          22.3520   39.9850   19.9420 C.ar    1  UNL1        0.0298
@<TRIPOS>BOND
     1     1    31    1
     2     1     2    1
     3     1     3    1
     4     1     4    1
     5     5    29    1
     6     5     6    1
     7     5     7    1
     8     8    24    1
     9     8     9    1
    10     8    10    1
    11     8    11    1
    12    12    14    1
    13    12    13    1
    14    14    17    1
    15    14    15    1
    16    14    16    1
    17    17    23    1
    18    17    18    1
    19    17    19    1
    20    20    22    1
    21    20    25    2
    22    20    21    1
    23    22    23    1
    24    23    24    2
    25    24    25    1
    26    25    26    1
    27    26    35    1
    28    26    27    1
    29    26    28    1
    30    29    30   ar
    31    29    35   ar
    32    30    31   ar
    33    31    32   ar
    34    32    33   ar
    35    33    35   ar
    36    33    34    1
