@<TRIPOS>MOLECULE
LIGAND
 31 32 0 0 0
SMALL
GASTEIGER

@<TRIPOS>ATOM
      1 N          29.8760    4.1050   56.3530 N.2     1  UNL1        0.0237
      2 C          29.3430    5.0480   55.4730 C.cat   1  UNL1        0.4211
      3 C          29.5330    4.1550   57.6870 C.2     1  UNL1        0.3270
      4 C          28.5300    5.1440   58.1820 C.2     1  UNL1        0.1067
      5 C          28.0470    6.1130   57.1470 C.2     1  UNL1        0.0927
      6 N          28.4140    6.0290   55.8370 N.2     1  UNL1       -0.2404
      7 C          28.1050    5.2380   59.5600 C.ar    1  UNL1       -0.0071
      8 C          28.7100    6.0880   60.5010 C.ar    1  UNL1       -0.0523
      9 C          28.2730    6.1450   61.8450 C.ar    1  UNL1       -0.0428
     10 C          27.1820    5.3060   62.2940 C.ar    1  UNL1        0.0410
     11 C          26.5410    4.4530   61.4010 C.ar    1  UNL1       -0.0428
     12 C          26.9930    4.4190   60.0470 C.ar    1  UNL1       -0.0523
     13 N          30.0320    3.2590   58.5670 N.pl3   1  UNL1       -0.2459
     14 N          29.7100    4.9790   54.1210 N.pl3   1  UNL1       -0.2416
     15 C          27.0510    7.1590   57.5690 C.3     1  UNL1       -0.0002
     16 C          25.6780    7.1840   56.9350 C.3     1  UNL1       -0.0586
     17 CL         26.7810    5.4560   63.9000 Cl      1  UNL1       -0.0835
     18 H          28.0184    6.6699   55.1344 H       1  UNL1        0.2651
     19 H          29.5395    6.7213   60.1864 H       1  UNL1        0.0624
     20 H          28.7597    6.8235   62.5456 H       1  UNL1        0.0632
     21 H          25.7123    3.8248   61.7277 H       1  UNL1        0.0632
     22 H          26.4885    3.7546   59.3455 H       1  UNL1        0.0624
     23 H          29.7658    3.3100   59.5607 H       1  UNL1        0.2884
     24 H          30.6784    2.5251   58.2440 H       1  UNL1        0.2884
     25 H          29.3318    5.6621   53.4492 H       1  UNL1        0.2421
     26 H          30.3577    4.2453   53.8000 H       1  UNL1        0.2421
     27 H          27.5135    8.1487   57.3870 H       1  UNL1        0.0339
     28 H          26.8896    7.1492   58.6603 H       1  UNL1        0.0339
     29 H          25.0639    8.0078   57.3370 H       1  UNL1        0.0234
     30 H          25.7273    7.3163   55.8422 H       1  UNL1        0.0234
     31 H          25.1310    6.2459   57.1287 H       1  UNL1        0.0234
@<TRIPOS>BOND
     1     1     2    2
     2     1     3    1
     3     2     6    1
     4     2    14    1
     5     3     4    2
     6     3    13    1
     7     4     5    1
     8     4     7    1
     9     5     6    2
    10     5    15    1
    11     7     8   ar
    12     7    12   ar
    13     8     9   ar
    14     9    10   ar
    15    10    11   ar
    16    10    17    1
    17    11    12   ar
    18    15    16    1
    19     6    18    1
    20     8    19    1
    21     9    20    1
    22    11    21    1
    23    12    22    1
    24    13    23    1
    25    13    24    1
    26    14    25    1
    27    14    26    1
    28    15    27    1
    29    15    28    1
    30    16    29    1
    31    16    30    1
    32    16    31    1
