@<TRIPOS>MOLECULE
LIGAND
 18 18 0 0 0
SMALL
GASTEIGER

@<TRIPOS>ATOM
      1 C         -13.3730   -6.7640   21.1270 C.ar    1  UNL1        0.2572
      2 C         -15.2340   -5.5800   20.6200 C.ar    1  UNL1        0.1893
      3 C         -17.6860   -5.3980   20.2930 C.2     1  UNL1        0.2156
      4 C         -17.8640   -6.8770   20.5800 C.3     1  UNL1        0.0125
      5 H         -18.9084   -7.0783   20.8184 H       1  UNL1        0.0323
      6 H         -17.5742   -7.4553   19.7027 H       1  UNL1        0.0323
      7 H         -17.2375   -7.1616   21.4254 H       1  UNL1        0.0323
      8 N         -11.0910   -7.8990   20.3810 N.3     1  UNL1       -0.1032
      9 H         -10.9245   -7.0100   19.8882 H       1  UNL1        0.1695
     10 N         -14.1830   -4.8330   20.5410 N.ar    1  UNL1       -0.1239
     11 N         -13.0520   -5.5400   20.8440 N.ar    1  UNL1       -0.1190
     12 N         -16.3850   -4.9120   20.3180 N.am    1  UNL1       -0.2635
     13 H         -16.2745   -3.9167   20.0769 H       1  UNL1        0.1568
     14 O         -12.8010   -9.2720   21.6180 O.2     1  UNL1       -0.1498
     15 O         -11.6250   -7.6290   22.8930 O.2     1  UNL1       -0.1498
     16 O         -18.6970   -4.7370   20.0460 O.2     1  UNL1       -0.2757
     17 S         -12.1460   -7.9640   21.5690 S.O2    1  UNL1        0.0978
     18 S         -15.0170   -7.1920   21.0630 S.2     1  UNL1       -0.0105
@<TRIPOS>BOND
     1     1    11   ar
     2     1    17    1
     3     1    18   ar
     4     2    10   ar
     5     2    12    1
     6     2    18   ar
     7     3     4    1
     8     3    12   am
     9     3    16    2
    10     4     5    1
    11     4     6    1
    12     4     7    1
    13     8    17    1
    14     8     9    1
    15    10    11   ar
    16    12    13    1
    17    14    17    2
    18    15    17    2
