@<TRIPOS>MOLECULE
LIGAND
 41 43 0 0 0
SMALL
GASTEIGER

@<TRIPOS>ATOM
      1 C          57.4160   25.1030   33.0280 C.3     1  UNL1        0.0779
      2 H          56.3339   25.0338   32.8127 H       1  UNL1        0.0426
      3 C          57.9150   26.3470   32.3210 C.2     1  UNL1        0.3601
      4 O          57.0850   27.1160   31.7890 O.co2   1  UNL1       -0.2460
      5 O          59.1230   26.6600   32.2440 O.co2   1  UNL1       -0.2460
      6 C          58.1130   23.8370   32.4910 C.3     1  UNL1       -0.0138
      7 H          57.6669   22.9270   32.9197 H       1  UNL1        0.0321
      8 H          59.1755   23.8394   32.7832 H       1  UNL1        0.0321
      9 C          58.0040   23.7750   30.9750 C.ar    1  UNL1       -0.0466
     10 C          59.0930   24.1020   30.1700 C.ar    1  UNL1       -0.0586
     11 H          60.0357   24.3839   30.6389 H       1  UNL1        0.0620
     12 C          59.0050   24.0770   28.7710 C.ar    1  UNL1       -0.0615
     13 H          59.8587   24.3747   28.1622 H       1  UNL1        0.0618
     14 C          57.8070   23.6650   28.1580 C.ar    1  UNL1       -0.0617
     15 H          57.7400   23.5901   27.0726 H       1  UNL1        0.0618
     16 C          56.7110   23.3550   28.9530 C.ar    1  UNL1       -0.0615
     17 H          55.7598   23.1000   28.4857 H       1  UNL1        0.0618
     18 C          56.8170   23.3670   30.3540 C.ar    1  UNL1       -0.0586
     19 H          55.9680   23.0561   30.9628 H       1  UNL1        0.0620
     20 C          57.6370   25.1710   34.5470 C.3     1  UNL1        0.0779
     21 H          58.6570   24.8263   34.7953 H       1  UNL1        0.0426
     22 C          57.5140   26.5790   35.0580 C.2     1  UNL1        0.3601
     23 O          56.6730   27.3870   34.6000 O.co2   1  UNL1       -0.2460
     24 O          58.2960   26.9840   35.9560 O.co2   1  UNL1       -0.2460
     25 C          56.6260   24.2210   35.2430 C.3     1  UNL1       -0.0137
     26 H          56.6105   23.2215   34.7852 H       1  UNL1        0.0321
     27 H          55.6096   24.6395   35.1791 H       1  UNL1        0.0321
     28 C          57.0770   24.1100   36.6850 C.ar    1  UNL1       -0.0429
     29 C          56.4830   24.8980   37.7000 C.ar    1  UNL1       -0.0129
     30 H          55.6976   25.6232   37.4871 H       1  UNL1        0.0658
     31 C          56.9680   24.6860   38.9890 C.ar    1  UNL1        0.1665
     32 O          56.6450   25.3320   40.1140 O.3     1  UNL1       -0.4526
     33 C          57.4370   24.7990   41.1870 C.3     1  UNL1        0.2332
     34 H          56.7887   24.3318   41.9453 H       1  UNL1        0.1166
     35 H          58.0532   25.5967   41.6324 H       1  UNL1        0.1166
     36 O          58.2800   23.8030   40.5730 O.3     1  UNL1       -0.4526
     37 C          57.9960   23.7970   39.2640 C.ar    1  UNL1        0.1662
     38 C          58.6040   23.0440   38.2630 C.ar    1  UNL1       -0.0159
     39 H          59.4308   22.3670   38.4779 H       1  UNL1        0.0655
     40 C          58.0950   23.2020   36.9550 C.ar    1  UNL1       -0.0549
     41 H          58.5071   22.6021   36.1436 H       1  UNL1        0.0621
@<TRIPOS>BOND
     1     1     3    1
     2     1     6    1
     3     1    20    1
     4     1     2    1
     5     3     4   ar
     6     3     5   ar
     7     6     9    1
     8     6     7    1
     9     6     8    1
    10     9    10   ar
    11     9    18   ar
    12    10    12   ar
    13    10    11    1
    14    12    14   ar
    15    12    13    1
    16    14    16   ar
    17    14    15    1
    18    16    18   ar
    19    16    17    1
    20    18    19    1
    21    20    22    1
    22    20    25    1
    23    20    21    1
    24    22    23   ar
    25    22    24   ar
    26    25    28    1
    27    25    26    1
    28    25    27    1
    29    28    29   ar
    30    28    40   ar
    31    29    31   ar
    32    29    30    1
    33    31    32    1
    34    31    37   ar
    35    32    33    1
    36    33    36    1
    37    33    34    1
    38    33    35    1
    39    36    37    1
    40    37    38   ar
    41    38    40   ar
    42    38    39    1
    43    40    41    1
