@<TRIPOS>MOLECULE
LIGAND
 51 53 0 0 0
SMALL
GASTEIGER

@<TRIPOS>ATOM
      1 C          -1.3780  -34.4600   27.0050 C.ar    1  UNL1       -0.0416
      2 C          -2.1390  -33.8020   27.9850 C.ar    1  UNL1       -0.0582
      3 H          -3.1955  -34.0405   28.1071 H       1  UNL1        0.0620
      4 C          -1.5300  -32.8260   28.8160 C.ar    1  UNL1       -0.0615
      5 H          -2.1185  -32.3160   29.5787 H       1  UNL1        0.0618
      6 C          -0.1520  -32.5130   28.6540 C.ar    1  UNL1       -0.0617
      7 H           0.3164  -31.7645   29.2931 H       1  UNL1        0.0618
      8 C           0.6070  -33.1720   27.6660 C.ar    1  UNL1       -0.0615
      9 H           1.6632  -32.9356   27.5366 H       1  UNL1        0.0618
     10 C          -0.0120  -34.1430   26.8430 C.ar    1  UNL1       -0.0582
     11 H           0.5723  -34.6514   26.0760 H       1  UNL1        0.0620
     12 C          -1.8260  -35.6760   24.6790 C.ar    1  UNL1        0.0385
     13 N          -2.6010  -34.8070   23.8740 N.ar    1  UNL1       -0.2734
     14 C          -2.5220  -34.8430   22.4620 C.ar    1  UNL1        0.3313
     15 O          -3.2020  -34.1350   21.7220 O.2     1  UNL1       -0.2464
     16 N          -1.6430  -35.7660   21.9260 N.ar    1  UNL1       -0.2746
     17 H          -1.5746  -35.7959   20.8987 H       1  UNL1        0.1734
     18 C          -0.8410  -36.6590   22.6310 C.ar    1  UNL1        0.2576
     19 O          -0.0970  -37.4240   22.0200 O.2     1  UNL1       -0.2674
     20 C          -0.9480  -36.6120   24.0760 C.ar    1  UNL1        0.0394
     21 C          -2.0230  -35.5800   26.2030 C.3     1  UNL1        0.0136
     22 H          -3.0954  -35.6507   26.4430 H       1  UNL1        0.0376
     23 H          -1.6151  -36.4953   26.6547 H       1  UNL1        0.0376
     24 C          -0.1340  -37.7070   24.7950 C.3     1  UNL1       -0.0147
     25 H           0.3647  -38.3267   24.0252 H       1  UNL1        0.0346
     26 C          -0.9790  -38.7840   25.5020 C.3     1  UNL1       -0.0584
     27 H          -1.4521  -38.4646   26.4395 H       1  UNL1        0.0235
     28 H          -1.7765  -39.1446   24.8304 H       1  UNL1        0.0235
     29 H          -0.3512  -39.6563   25.7522 H       1  UNL1        0.0235
     30 C           1.0590  -37.1900   25.5710 C.3     1  UNL1       -0.0584
     31 H           1.6182  -36.4393   24.9884 H       1  UNL1        0.0235
     32 H           0.7790  -36.7451   26.5366 H       1  UNL1        0.0235
     33 H           1.7617  -38.0100   25.7974 H       1  UNL1        0.0235
     34 C          -3.5950  -33.8570   24.4600 C.3     1  UNL1        0.1289
     35 H          -3.2723  -32.8214   24.2391 H       1  UNL1        0.0801
     36 H          -3.5997  -33.9282   25.5450 H       1  UNL1        0.0801
     37 O          -4.8720  -34.0610   23.8810 O.3     1  UNL1       -0.3546
     38 C          -5.9150  -33.9310   24.8330 C.3     1  UNL1        0.0749
     39 H          -6.2634  -32.8818   24.8524 H       1  UNL1        0.0611
     40 H          -5.5904  -34.1671   25.8621 H       1  UNL1        0.0611
     41 C          -7.0520  -34.8480   24.5050 C.ar    1  UNL1       -0.0219
     42 C          -6.9530  -35.7380   23.4180 C.ar    1  UNL1       -0.0564
     43 H          -6.0848  -35.6964   22.7602 H       1  UNL1        0.0621
     44 C          -7.9700  -36.6810   23.1770 C.ar    1  UNL1       -0.0614
     45 H          -7.8916  -37.3695   22.3356 H       1  UNL1        0.0618
     46 C          -9.0930  -36.7290   24.0330 C.ar    1  UNL1       -0.0617
     47 H          -9.8838  -37.4581   23.8562 H       1  UNL1        0.0618
     48 C          -9.1890  -35.8280   25.1210 C.ar    1  UNL1       -0.0614
     49 H         -10.0555  -35.8613   25.7814 H       1  UNL1        0.0618
     50 C          -8.1640  -34.8880   25.3500 C.ar    1  UNL1       -0.0564
     51 H          -8.2388  -34.1926   26.1860 H       1  UNL1        0.0621
@<TRIPOS>BOND
     1     1     2   ar
     2     1    10   ar
     3     1    21    1
     4     2     4   ar
     5     2     3    1
     6     4     6   ar
     7     4     5    1
     8     6     8   ar
     9     6     7    1
    10     8    10   ar
    11     8     9    1
    12    10    11    1
    13    12    13   ar
    14    12    20   ar
    15    12    21    1
    16    13    14   ar
    17    13    34    1
    18    14    15    2
    19    14    16   ar
    20    16    18   ar
    21    16    17    1
    22    18    19    2
    23    18    20   ar
    24    20    24    1
    25    21    22    1
    26    21    23    1
    27    24    26    1
    28    24    30    1
    29    24    25    1
    30    26    27    1
    31    26    28    1
    32    26    29    1
    33    30    31    1
    34    30    32    1
    35    30    33    1
    36    34    37    1
    37    34    35    1
    38    34    36    1
    39    37    38    1
    40    38    41    1
    41    38    39    1
    42    38    40    1
    43    41    42   ar
    44    41    50   ar
    45    42    44   ar
    46    42    43    1
    47    44    46   ar
    48    44    45    1
    49    46    48   ar
    50    46    47    1
    51    48    50   ar
    52    48    49    1
    53    50    51    1
