@<TRIPOS>MOLECULE
LIGAND
 33 34 0 0 0
SMALL
GASTEIGER

@<TRIPOS>ATOM
      1 OD1        45.2230   28.2880    9.3080 O.co2   1  ASP1       -0.2463
      2 CG         45.8570   29.0940   10.1670 C.2     1  ASP1        0.3583
      3 OD2        46.1510   30.3310    9.8700 O.co2   1  ASP1       -0.2463
      4 CB         46.2030   28.5530   11.5690 C.3     1  ASP1        0.0780
      5 CA         47.6410   27.9310   11.5210 C.3     1  ASP1        0.1349
      6 C          48.5050   28.5790   10.4430 C.2     1  ASP1        0.3764
      7 O          49.2410   29.6610   10.7560 O.co2   1  ASP1       -0.2443
      8 OXT        48.5620   28.0390    9.2970 O.co2   1  ASP1       -0.2443
      9 N          48.3210   28.1780   12.7980 N.am    1  ASP1       -0.3015
     10 C          47.8190   27.7160   14.0250 C.2     0  UNK0        0.2181
     11 O          46.8190   27.0240   14.0880 O.2     0  UNK0       -0.2754
     12 C          48.6350   28.0620   15.2670 C.3     0  UNK0        0.0511
     13 C          50.0020   27.3790   15.1760 C.ar    0  UNK0       -0.0136
     14 C          51.2550   28.0140   15.2990 C.ar    0  UNK0        0.0064
     15 N          52.2180   27.0150   15.1780 N.ar    0  UNK0       -0.3604
     16 C          50.2100   25.9880   15.0420 C.ar    0  UNK0        0.0033
     17 C          49.3270   24.9110   14.9690 C.ar    0  UNK0       -0.0523
     18 C          51.5910   25.7880   15.0160 C.ar    0  UNK0        0.0467
     19 C          52.1030   24.4930   14.8910 C.ar    0  UNK0       -0.0378
     20 C          51.2350   23.4210   14.7960 C.ar    0  UNK0       -0.0598
     21 C          49.8650   23.6370   14.8290 C.ar    0  UNK0       -0.0611
     22 HB1        45.4506   27.8091   11.8713 H       1  ASP1        0.0403
     23 HB2        46.1784   29.3818   12.2899 H       1  ASP1        0.0403
     24 HA         47.5771   26.8470   11.3375 H       1  ASP1        0.0621
     25 H          49.2019   28.7117   12.7938 H       1  ASP1        0.1495
     26 H          48.0711   27.7092   16.1383 H       0  UNK0        0.0408
     27 H          48.7752   29.1502   15.3329 H       0  UNK0        0.0408
     28 H          51.4346   29.0773   15.4576 H       0  UNK0        0.0810
     29 H          53.2368   27.1639   15.2046 H       0  UNK0        0.1653
     30 H          48.2489   25.0635   15.0201 H       0  UNK0        0.0624
     31 H          53.1804   24.3294   14.8686 H       0  UNK0        0.0638
     32 H          51.6262   22.4086   14.6954 H       0  UNK0        0.0618
     33 H          49.1918   22.7840   14.7428 H       0  UNK0        0.0618
@<TRIPOS>BOND
     1     1     2   ar
     2     2     3   ar
     3     2     4    1
     4     4     5    1
     5     5     6    1
     6     5     9    1
     7     6     7   ar
     8     6     8   ar
     9     9    10   am
    10    10    11    2
    11    10    12    1
    12    12    13    1
    13    13    14   ar
    14    13    16   ar
    15    14    15   ar
    16    15    18   ar
    17    16    17   ar
    18    16    18   ar
    19    17    21   ar
    20    18    19   ar
    21    19    20   ar
    22    20    21   ar
    23     4    22    1
    24     4    23    1
    25     5    24    1
    26     9    25    1
    27    12    26    1
    28    12    27    1
    29    14    28    1
    30    15    29    1
    31    17    30    1
    32    19    31    1
    33    20    32    1
    34    21    33    1
