@<TRIPOS>MOLECULE
LIGAND
 38 40 0 0 0
SMALL
GASTEIGER

@<TRIPOS>ATOM
      1 N          -9.5330   52.7730   40.6960 N.am    1  UNL1       -0.2809
      2 H          -9.8303   53.7552   40.7843 H       1  UNL1        0.1552
      3 C          -9.9690   51.9100   39.7440 C.2     1  UNL1        0.2501
      4 C          -9.3390   50.5690   39.9840 C.2     1  UNL1        0.0596
      5 C          -7.5730   49.8180   41.8530 C.ar    1  UNL1       -0.0521
      6 H          -7.4711   48.7799   41.5368 H       1  UNL1        0.0624
      7 C          -6.8050   50.3380   43.0180 C.ar    1  UNL1       -0.0611
      8 H          -6.1228   49.6830   43.5600 H       1  UNL1        0.0618
      9 C          -6.9720   51.7510   43.4380 C.ar    1  UNL1       -0.0600
     10 H          -6.4403   52.1218   44.3143 H       1  UNL1        0.0618
     11 C          -7.8640   52.6690   42.6680 C.ar    1  UNL1       -0.0399
     12 H          -7.9446   53.7195   42.9476 H       1  UNL1        0.0636
     13 C          -8.6350   52.1420   41.5260 C.ar    1  UNL1        0.0416
     14 C          -8.4880   50.7530   41.1260 C.ar    1  UNL1        0.0095
     15 O         -10.7110   52.1550   38.7830 O.2     1  UNL1       -0.2698
     16 C          -9.4920   49.4720   39.2340 C.2     1  UNL1        0.0065
     17 H          -9.0457   48.5418   39.5857 H       1  UNL1        0.0789
     18 N         -10.2290   49.4510   37.9610 N.pl3   1  UNL1       -0.3198
     19 H         -10.7763   50.2892   37.7186 H       1  UNL1        0.1516
     20 C         -10.2480   48.4250   37.0840 C.ar    1  UNL1        0.0310
     21 C          -9.1600   47.3970   36.9390 C.ar    1  UNL1       -0.0387
     22 H          -8.2702   47.4545   37.5660 H       1  UNL1        0.0637
     23 C          -9.2920   46.3320   35.9690 C.ar    1  UNL1       -0.0336
     24 H          -8.5016   45.5896   35.8591 H       1  UNL1        0.0638
     25 C         -10.4960   46.2570   35.1340 C.ar    1  UNL1        0.1053
     26 C         -11.5720   47.2770   35.2400 C.ar    1  UNL1       -0.0336
     27 H         -12.4474   47.2201   34.5931 H       1  UNL1        0.0638
     28 C         -11.4480   48.3620   36.2220 C.ar    1  UNL1       -0.0387
     29 H         -12.2324   49.1132   36.3145 H       1  UNL1        0.0637
     30 S         -10.4970   45.1020   33.8130 S.O2    1  UNL1        0.0582
     31 O          -9.4930   45.5150   32.8900 O.2     1  UNL1       -0.1531
     32 O         -11.8370   44.9790   33.3220 O.2     1  UNL1       -0.1531
     33 N         -10.1440   43.5980   34.3930 N.3     1  UNL1       -0.1930
     34 H         -10.8757   42.8866   34.2538 H       1  UNL1        0.1477
     35 C          -8.9430   43.1360   35.0740 C.3     1  UNL1        0.0059
     36 H          -9.0397   43.2286   36.1673 H       1  UNL1        0.0405
     37 H          -8.7262   42.0789   34.8357 H       1  UNL1        0.0405
     38 H          -8.0931   43.7344   34.7216 H       1  UNL1        0.0405
@<TRIPOS>BOND
     1     1     3   am
     2     1    13    1
     3     1     2    1
     4     3     4    1
     5     3    15    2
     6     4    14    1
     7     4    16    2
     8     5     7   ar
     9     5    14   ar
    10     5     6    1
    11     7     9   ar
    12     7     8    1
    13     9    11   ar
    14     9    10    1
    15    11    13   ar
    16    11    12    1
    17    13    14   ar
    18    16    18    1
    19    16    17    1
    20    18    20    1
    21    18    19    1
    22    20    21   ar
    23    20    28   ar
    24    21    23   ar
    25    21    22    1
    26    23    25   ar
    27    23    24    1
    28    25    26   ar
    29    25    30    1
    30    26    28   ar
    31    26    27    1
    32    28    29    1
    33    30    31    2
    34    30    32    2
    35    30    33    1
    36    33    35    1
    37    33    34    1
    38    35    36    1
    39    35    37    1
    40    35    38    1
