@<TRIPOS>MOLECULE
LIGAND
 78 81 0 0 0
SMALL
GASTEIGER

@<TRIPOS>ATOM
      1 C          24.5000    2.3990   20.4240 C.ar    1  UNL1        0.1205
      2 O          25.8560    2.4460   20.5620 O.3     1  UNL1       -0.5065
      3 C          23.6870    3.4480   20.9470 C.ar    1  UNL1       -0.0199
      4 C          22.3390    3.4320   20.7260 C.ar    1  UNL1       -0.0576
      5 C          21.7270    2.3540   20.0240 C.ar    1  UNL1       -0.0492
      6 C          22.5330    1.3470   19.4330 C.ar    1  UNL1        0.0431
      7 C          23.9500    1.3580   19.6050 C.ar    1  UNL1        0.0030
      8 C          24.8990    0.3740   18.9300 C.3     1  UNL1       -0.0355
      9 C          21.8480    0.2670   18.6660 C.2     1  UNL1        0.2448
     10 O          22.0690   -0.9900   18.9430 O.2     1  UNL1       -0.2702
     11 N          20.9700    0.6590   17.7570 N.am    1  UNL1       -0.3052
     12 C          20.1730   -0.3620   16.9800 C.3     1  UNL1        0.0618
     13 C          18.6860    0.1940   16.8740 C.3     1  UNL1       -0.0063
     14 C          18.1480    0.6370   18.2120 C.ar    1  UNL1       -0.0455
     15 C          18.0940    2.0320   18.5210 C.ar    1  UNL1       -0.0585
     16 C          17.6770    2.4080   19.8380 C.ar    1  UNL1       -0.0615
     17 C          17.3240    1.4600   20.8120 C.ar    1  UNL1       -0.0617
     18 C          17.3750    0.1040   20.4720 C.ar    1  UNL1       -0.0615
     19 C          17.7970   -0.2950   19.2130 C.ar    1  UNL1       -0.0585
     20 C          20.8680   -0.5040   15.6030 C.3     1  UNL1        0.1495
     21 O          20.5210    0.5820   14.7460 O.3     1  UNL1       -0.3807
     22 C          20.3600   -1.7850   14.9420 C.2     1  UNL1        0.2473
     23 O          19.2990   -1.8640   14.2880 O.2     1  UNL1       -0.2727
     24 N          21.1050   -2.9230   15.1300 N.am    1  UNL1       -0.2771
     25 C          22.3900   -2.9470   15.9220 C.3     1  UNL1        0.0624
     26 S          22.7750   -4.7050   16.1440 S.3     1  UNL1       -0.1331
     27 C          21.8980   -5.1370   14.5960 C.3     1  UNL1        0.0395
     28 C          22.7450   -4.7600   13.3790 C.3     1  UNL1       -0.0485
     29 C          21.5620   -6.6380   14.5150 C.3     1  UNL1       -0.0485
     30 C          20.6350   -4.2260   14.6100 C.3     1  UNL1        0.1171
     31 C          19.4740   -4.7460   15.4830 C.2     1  UNL1        0.2352
     32 O          19.3600   -4.5020   16.7210 O.2     1  UNL1       -0.2737
     33 N          18.5680   -5.5610   14.7910 N.am    1  UNL1       -0.3096
     34 C          17.4260   -6.2060   15.4830 C.3     1  UNL1        0.0371
     35 C          16.1360   -5.9810   14.6820 C.ar    1  UNL1       -0.0274
     36 C          15.4800   -4.7310   14.6670 C.ar    1  UNL1       -0.0458
     37 C          14.2670   -4.6240   13.9790 C.ar    1  UNL1       -0.0585
     38 C          13.7360   -5.7470   13.2960 C.ar    1  UNL1       -0.0615
     39 C          14.3650   -6.9590   13.3090 C.ar    1  UNL1       -0.0614
     40 C          15.5770   -7.0730   14.0280 C.ar    1  UNL1       -0.0568
     41 C          16.0130   -3.5750   15.4200 C.3     1  UNL1       -0.0394
     42 H          26.2313    3.2275   20.0059 H       1  UNL1        0.2921
     43 H          24.1388    4.2578   21.5198 H       1  UNL1        0.0654
     44 H          21.7240    4.2544   21.0914 H       1  UNL1        0.0619
     45 H          20.6414    2.3029   19.9411 H       1  UNL1        0.0625
     46 H          24.4175   -0.1355   18.0840 H       1  UNL1        0.0279
     47 H          25.7918    0.8850   18.5398 H       1  UNL1        0.0279
     48 H          25.2303   -0.3978   19.6438 H       1  UNL1        0.0279
     49 H          20.8296    1.6637   17.5787 H       1  UNL1        0.1494
     50 H          20.1794   -1.2927   17.5619 H       1  UNL1        0.0532
     51 H          18.0513   -0.5975   16.4446 H       1  UNL1        0.0332
     52 H          18.6333    1.0469   16.1796 H       1  UNL1        0.0332
     53 H          18.3614    2.7841   17.7787 H       1  UNL1        0.0620
     54 H          17.6320    3.4667   20.0935 H       1  UNL1        0.0618
     55 H          17.0173    1.7735   21.8099 H       1  UNL1        0.0618
     56 H          17.0798   -0.6470   21.2048 H       1  UNL1        0.0618
     57 H          17.8597   -1.3599   18.9893 H       1  UNL1        0.0620
     58 H          21.9590   -0.5306   15.7419 H       1  UNL1        0.0709
     59 H          21.1766    1.3620   14.8967 H       1  UNL1        0.2105
     60 H          22.2499   -2.5018   16.9125 H       1  UNL1        0.0580
     61 H          23.1995   -2.4370   15.3807 H       1  UNL1        0.0580
     62 H          22.1976   -5.0030   12.4528 H       1  UNL1        0.0244
     63 H          22.9961   -3.6884   13.3356 H       1  UNL1        0.0244
     64 H          23.6961   -5.3171   13.3524 H       1  UNL1        0.0244
     65 H          20.9967   -6.8510   13.5938 H       1  UNL1        0.0244
     66 H          22.4790   -7.2497   14.4956 H       1  UNL1        0.0244
     67 H          20.9587   -6.9826   15.3703 H       1  UNL1        0.0244
     68 H          20.2652   -4.0991   13.5807 H       1  UNL1        0.0611
     69 H          18.6980   -5.7152   13.7809 H       1  UNL1        0.1491
     70 H          17.3276   -5.7706   16.4842 H       1  UNL1        0.0512
     71 H          17.6226   -7.2821   15.6203 H       1  UNL1        0.0512
     72 H          13.7293   -3.6759   13.9680 H       1  UNL1        0.0620
     73 H          12.8010   -5.6402   12.7460 H       1  UNL1        0.0618
     74 H          13.9446   -7.8143   12.7800 H       1  UNL1        0.0618
     75 H          16.0837   -8.0372   14.0704 H       1  UNL1        0.0621
     76 H          17.0066   -3.2729   15.0515 H       1  UNL1        0.0278
     77 H          15.3568   -2.6963   15.3344 H       1  UNL1        0.0278
     78 H          16.1205   -3.7984   16.4939 H       1  UNL1        0.0278
@<TRIPOS>BOND
     1     1     2    1
     2     1     3   ar
     3     1     7   ar
     4     3     4   ar
     5     4     5   ar
     6     5     6   ar
     7     6     7   ar
     8     6     9    1
     9     7     8    1
    10     9    10    2
    11     9    11   am
    12    11    12    1
    13    12    13    1
    14    12    20    1
    15    13    14    1
    16    14    15   ar
    17    14    19   ar
    18    15    16   ar
    19    16    17   ar
    20    17    18   ar
    21    18    19   ar
    22    20    21    1
    23    20    22    1
    24    22    23    2
    25    22    24   am
    26    24    25    1
    27    24    30    1
    28    25    26    1
    29    26    27    1
    30    27    28    1
    31    27    29    1
    32    27    30    1
    33    30    31    1
    34    31    32    2
    35    31    33   am
    36    33    34    1
    37    34    35    1
    38    35    36   ar
    39    35    40   ar
    40    36    37   ar
    41    36    41    1
    42    37    38   ar
    43    38    39   ar
    44    39    40   ar
    45     2    42    1
    46     3    43    1
    47     4    44    1
    48     5    45    1
    49     8    46    1
    50     8    47    1
    51     8    48    1
    52    11    49    1
    53    12    50    1
    54    13    51    1
    55    13    52    1
    56    15    53    1
    57    16    54    1
    58    17    55    1
    59    18    56    1
    60    19    57    1
    61    20    58    1
    62    21    59    1
    63    25    60    1
    64    25    61    1
    65    28    62    1
    66    28    63    1
    67    28    64    1
    68    29    65    1
    69    29    66    1
    70    29    67    1
    71    30    68    1
    72    33    69    1
    73    34    70    1
    74    34    71    1
    75    37    72    1
    76    38    73    1
    77    39    74    1
    78    40    75    1
    79    41    76    1
    80    41    77    1
    81    41    78    1
