@<TRIPOS>MOLECULE
LIGAND
 26 27 0 0 0
SMALL
GASTEIGER

@<TRIPOS>ATOM
      1 N          79.3530    4.1940   30.7490 N.pl3   1  UNL1       -0.2162
      2 C          80.5860    4.5600   31.3310 C.ar    1  UNL1        0.0481
      3 C          81.6500    4.9890   30.5050 C.ar    1  UNL1       -0.0379
      4 C          80.7530    4.4920   32.7440 C.ar    1  UNL1       -0.0379
      5 C          82.8860    5.3510   31.0840 C.ar    1  UNL1       -0.0416
      6 C          81.9920    4.8590   33.3230 C.ar    1  UNL1       -0.0416
      7 C          83.0580    5.2860   32.4900 C.ar    1  UNL1        0.0411
      8 CL         84.5900    5.7290   33.1960 Cl      1  UNL1       -0.0835
      9 S          78.1280    5.4030   30.5050 S.O2    1  UNL1        0.0737
     10 C          78.3850    6.2750   28.8910 C.ar    1  UNL1        0.1297
     11 O          76.8540    4.7400   30.4940 O.2     1  UNL1       -0.1499
     12 O          78.1750    6.3450   31.5770 O.2     1  UNL1       -0.1499
     13 C          78.5240    5.6870   27.6260 C.ar    1  UNL1        0.1269
     14 C          78.4760    7.6600   28.7280 C.ar    1  UNL1       -0.0272
     15 S          78.6950    6.7220   26.6810 S.2     1  UNL1       -0.0882
     16 C          78.4980    4.2410   27.3070 C.2     1  UNL1        0.3949
     17 C          78.6700    7.9340   27.3780 C.ar    1  UNL1       -0.0216
     18 O          78.3240    3.3350   28.2630 O.co2   1  UNL1       -0.2399
     19 O          78.6360    3.8840   26.1410 O.co2   1  UNL1       -0.2399
     20 H          79.1804    3.2174   30.4709 H       1  UNL1        0.1737
     21 H          81.5167    5.0402   29.4244 H       1  UNL1        0.0637
     22 H          79.9305    4.1588   33.3769 H       1  UNL1        0.0637
     23 H          83.7087    5.6807   30.4495 H       1  UNL1        0.0633
     24 H          82.1261    4.8136   34.4038 H       1  UNL1        0.0633
     25 H          78.4066    8.4008   29.5245 H       1  UNL1        0.0643
     26 H          78.7833    8.9249   26.9383 H       1  UNL1        0.0694
@<TRIPOS>BOND
     1     1     2    1
     2     1     9    1
     3     2     3   ar
     4     2     4   ar
     5     3     5   ar
     6     4     6   ar
     7     5     7   ar
     8     6     7   ar
     9     7     8    1
    10     9    10    1
    11     9    11    2
    12     9    12    2
    13    10    13   ar
    14    10    14   ar
    15    13    15   ar
    16    13    16    1
    17    14    17   ar
    18    15    17   ar
    19    16    18   ar
    20    16    19   ar
    21     1    20    1
    22     3    21    1
    23     4    22    1
    24     5    23    1
    25     6    24    1
    26    14    25    1
    27    17    26    1
