@<TRIPOS>MOLECULE
LIGAND
 51 51 0 0 0
SMALL
GASTEIGER

@<TRIPOS>ATOM
      1 C          24.6460   16.5550   63.1530 C.3     1  UNL1        0.0833
      2 N          24.2740   15.9440   61.8770 N.pl3   1  UNL1       -0.2756
      3 C          23.8880   14.7170   61.8370 C.cat   1  UNL1        0.3412
      4 N          23.6880   13.8980   62.9170 N.pl3   1  UNL1       -0.2919
      5 N          23.5920   14.1650   60.6120 N.pl3   1  UNL1       -0.2919
      6 C          25.7230   17.6470   62.8880 C.3     1  UNL1        0.0379
      7 C          27.1700   17.1260   62.5750 C.3     1  UNL1        0.0342
      8 C          28.1920   18.3180   62.3820 C.3     1  UNL1       -0.0226
      9 C          27.7850   19.2510   61.2010 C.3     1  UNL1       -0.0514
     10 C          28.4340   20.6540   61.1620 C.3     1  UNL1       -0.0650
     11 C          29.6240   17.7090   62.2030 C.3     1  UNL1       -0.0514
     12 C          30.1080   16.8420   63.3870 C.3     1  UNL1       -0.0650
     13 N          27.1560   16.2630   61.3860 N.am    1  UNL1       -0.3120
     14 C          27.2660   14.9130   61.5190 C.2     1  UNL1        0.2102
     15 C          27.1800   14.0660   60.2630 C.3     1  UNL1        0.0122
     16 O          27.4320   14.3150   62.5720 O.2     1  UNL1       -0.2761
     17 C          25.6780   18.5470   64.1730 C.3     1  UNL1        0.0760
     18 O          26.5860   17.9910   65.1660 O.3     1  UNL1       -0.3905
     19 C          24.2180   18.3970   64.7210 C.3     1  UNL1        0.0900
     20 C          23.4850   19.6920   64.8870 C.2     1  UNL1        0.3616
     21 O          22.2660   19.7760   65.0340 O.co2   1  UNL1       -0.2460
     22 O          24.2040   20.8120   64.7970 O.co2   1  UNL1       -0.2460
     23 C          23.5020   17.4190   63.7550 C.3     1  UNL1       -0.0034
     24 H          25.0208   15.8029   63.8604 H       1  UNL1        0.0696
     25 H          24.3211   16.4967   61.0092 H       1  UNL1        0.2580
     26 H          23.3766   12.9264   62.7758 H       1  UNL1        0.2545
     27 H          23.8491   14.2539   63.8700 H       1  UNL1        0.2545
     28 H          23.2807   13.1851   60.5504 H       1  UNL1        0.2545
     29 H          23.6816   14.7317   59.7566 H       1  UNL1        0.2545
     30 H          25.3360   18.2342   62.0398 H       1  UNL1        0.0378
     31 H          27.4974   16.5116   63.4245 H       1  UNL1        0.0506
     32 H          28.1884   18.9061   63.3161 H       1  UNL1        0.0319
     33 H          26.7002   19.4420   61.2127 H       1  UNL1        0.0266
     34 H          27.9910   18.7368   60.2458 H       1  UNL1        0.0266
     35 H          28.0563   21.2292   60.3013 H       1  UNL1        0.0230
     36 H          28.1927   21.2201   62.0771 H       1  UNL1        0.0230
     37 H          29.5308   20.6009   61.0799 H       1  UNL1        0.0230
     38 H          30.3523   18.5292   62.0672 H       1  UNL1        0.0266
     39 H          29.6649   17.1145   61.2735 H       1  UNL1        0.0266
     40 H          31.1752   16.5916   63.2725 H       1  UNL1        0.0230
     41 H          29.9922   17.3798   64.3423 H       1  UNL1        0.0230
     42 H          29.5597   15.8911   63.4639 H       1  UNL1        0.0230
     43 H          27.0627   16.6809   60.4492 H       1  UNL1        0.1490
     44 H          26.3863   14.3939   59.5794 H       1  UNL1        0.0322
     45 H          28.1315   14.1340   59.7106 H       1  UNL1        0.0322
     46 H          27.0159   13.0265   60.5712 H       1  UNL1        0.0322
     47 H          25.9832   19.5836   63.9548 H       1  UNL1        0.0606
     48 H          26.4296   18.4543   66.0725 H       1  UNL1        0.2098
     49 H          24.2605   17.9089   65.7073 H       1  UNL1        0.0442
     50 H          22.7076   16.8344   64.2455 H       1  UNL1        0.0307
     51 H          23.0209   17.9947   62.9444 H       1  UNL1        0.0307
@<TRIPOS>BOND
     1     1     2    1
     2     1     6    1
     3     1    23    1
     4     2     3    1
     5     3     4    2
     6     3     5    1
     7     6     7    1
     8     6    17    1
     9     7     8    1
    10     7    13    1
    11     8     9    1
    12     8    11    1
    13     9    10    1
    14    11    12    1
    15    13    14   am
    16    14    15    1
    17    14    16    2
    18    17    18    1
    19    17    19    1
    20    19    20    1
    21    19    23    1
    22    20    21   ar
    23    20    22   ar
    24     1    24    1
    25     2    25    1
    26     4    26    1
    27     4    27    1
    28     5    28    1
    29     5    29    1
    30     6    30    1
    31     7    31    1
    32     8    32    1
    33     9    33    1
    34     9    34    1
    35    10    35    1
    36    10    36    1
    37    10    37    1
    38    11    38    1
    39    11    39    1
    40    12    40    1
    41    12    41    1
    42    12    42    1
    43    13    43    1
    44    15    44    1
    45    15    45    1
    46    15    46    1
    47    17    47    1
    48    18    48    1
    49    19    49    1
    50    23    50    1
    51    23    51    1
