@<TRIPOS>MOLECULE
LIGAND
 55 58 0 0 0
SMALL
GASTEIGER

@<TRIPOS>ATOM
      1 C           3.9020    9.7100   25.8190 C.ar    1  UNL1       -0.0595
      2 C           5.0190    8.9440   25.4540 C.ar    1  UNL1       -0.0376
      3 C           5.3240    8.7110   24.0820 C.ar    1  UNL1        0.0502
      4 C           4.5650    9.2430   23.0410 C.ar    1  UNL1        0.0035
      5 C           3.4020   10.0360   23.4190 C.ar    1  UNL1       -0.0413
      6 C           3.0890   10.2410   24.7900 C.ar    1  UNL1       -0.0582
      7 N           6.3100    7.8910   23.5500 N.ar    1  UNL1       -0.3318
      8 C           6.1790    7.9630   22.1710 C.ar    1  UNL1        0.1057
      9 C           5.1020    8.8590   21.7940 C.ar    1  UNL1       -0.0237
     10 C           2.5560   10.6660   22.3880 C.3     1  UNL1       -0.0391
     11 C           6.9710    7.2330   21.2470 C.2     1  UNL1        0.2608
     12 N           6.4300    6.9100   20.0470 N.am    1  UNL1       -0.3060
     13 C           7.2180    6.1500   19.0760 C.3     1  UNL1        0.0373
     14 C           7.5250    4.6930   19.4150 C.ar    1  UNL1       -0.0276
     15 C           7.1730    7.0070   24.3450 C.3     1  UNL1        0.0490
     16 C           8.4660    7.6430   24.7880 C.ar    1  UNL1       -0.0269
     17 C           9.1520    8.6530   24.0800 C.ar    1  UNL1       -0.0568
     18 C          10.4430    9.0430   24.4850 C.ar    1  UNL1       -0.0606
     19 C          11.0080    8.4270   25.6190 C.ar    1  UNL1       -0.0470
     20 C          10.2730    7.4690   26.3560 C.ar    1  UNL1        0.0611
     21 C           9.0090    7.0820   25.9340 C.ar    1  UNL1       -0.0421
     22 C           8.4830    3.9960   18.6620 C.ar    1  UNL1       -0.0386
     23 C           8.7180    2.6240   18.8490 C.ar    1  UNL1        0.0427
     24 C           7.9850    1.9400   19.8330 C.ar    1  UNL1       -0.0250
     25 C           7.0210    2.6140   20.6080 C.ar    1  UNL1        0.0427
     26 C           6.8080    3.9930   20.3970 C.ar    1  UNL1       -0.0386
     27 C          10.7420    6.8550   27.5860 C.2     1  UNL1        0.2662
     28 N          12.0200    6.8870   27.9700 N.2     1  UNL1       -0.2884
     29 CL          9.8430    1.7730   17.8020 Cl      1  UNL1       -0.0835
     30 CL          6.0320    1.7510   21.7850 Cl      1  UNL1       -0.0835
     31 O           8.1180    6.8820   21.5360 O.2     1  UNL1       -0.2686
     32 N           9.8220    6.2060   28.2890 N.pl3   1  UNL1       -0.2497
     33 H           3.6666    9.8914   26.8677 H       1  UNL1        0.0618
     34 H           5.6603    8.5227   26.2281 H       1  UNL1        0.0638
     35 H           2.2039   10.8196   25.0544 H       1  UNL1        0.0620
     36 H           4.7861    9.1606   20.7953 H       1  UNL1        0.0646
     37 H           3.1577   11.2727   21.6919 H       1  UNL1        0.0278
     38 H           2.0291    9.9088   21.7841 H       1  UNL1        0.0278
     39 H           1.7944   11.3260   22.8290 H       1  UNL1        0.0278
     40 H           5.4678    7.1984   19.8194 H       1  UNL1        0.1494
     41 H           7.3981    6.0943   23.7688 H       1  UNL1        0.0541
     42 H           6.6102    6.6890   25.2373 H       1  UNL1        0.0541
     43 H           8.6827    9.1309   23.2201 H       1  UNL1        0.0621
     44 H          10.9933    9.8050   23.9331 H       1  UNL1        0.0618
     45 H          12.0187    8.6904   25.9307 H       1  UNL1        0.0626
     46 H           8.4456    6.3406   26.5006 H       1  UNL1        0.0629
     47 H           9.0608    4.5348   17.9110 H       1  UNL1        0.0635
     48 H           8.1639    0.8776   19.9984 H       1  UNL1        0.0647
     49 H          12.3042    6.4366   28.8516 H       1  UNL1        0.3009
     50 H          12.7219    7.3620   27.3846 H       1  UNL1        0.3009
     51 H          10.0800    5.7448   29.1731 H       1  UNL1        0.2883
     52 H           8.8501    6.1637   27.9504 H       1  UNL1        0.2883
     53 H           8.1737    6.6745   18.9040 H       1  UNL1        0.0512
     54 H           6.6829    6.1807   18.1105 H       1  UNL1        0.0512
     55 H           6.0753    4.5223   21.0062 H       1  UNL1        0.0635
@<TRIPOS>BOND
     1     1     2   ar
     2     1     6   ar
     3     2     3   ar
     4     3     4   ar
     5     3     7   ar
     6     4     5   ar
     7     4     9   ar
     8     5     6   ar
     9     5    10    1
    10     7     8   ar
    11     7    15    1
    12     8     9   ar
    13     8    11    1
    14    11    12   am
    15    11    31    2
    16    12    13    1
    17    13    14    1
    18    14    22   ar
    19    14    26   ar
    20    15    16    1
    21    16    17   ar
    22    16    21   ar
    23    17    18   ar
    24    18    19   ar
    25    19    20   ar
    26    20    21   ar
    27    20    27    1
    28    22    23   ar
    29    23    24   ar
    30    23    29    1
    31    24    25   ar
    32    25    26   ar
    33    25    30    1
    34    27    28    2
    35    27    32    1
    36     1    33    1
    37     2    34    1
    38     6    35    1
    39     9    36    1
    40    10    37    1
    41    10    38    1
    42    10    39    1
    43    12    40    1
    44    15    41    1
    45    15    42    1
    46    17    43    1
    47    18    44    1
    48    19    45    1
    49    21    46    1
    50    22    47    1
    51    24    48    1
    52    28    49    1
    53    28    50    1
    54    32    51    1
    55    32    52    1
    56    13    53    1
    57    13    54    1
    58    26    55    1
