@<TRIPOS>MOLECULE
LIGAND
 23 24 0 0 0
SMALL
GASTEIGER

@<TRIPOS>ATOM
      1 C          36.5730   58.0680   78.1320 C.ar    1  UNL1       -0.0142
      2 C          36.4670   58.4150   76.7810 C.ar    1  UNL1       -0.0289
      3 C          37.5850   58.3010   75.8920 C.ar    1  UNL1       -0.0575
      4 H          37.5035   58.5789   74.8412 H       1  UNL1        0.0621
      5 C          38.7980   57.8140   76.4310 C.ar    1  UNL1       -0.0609
      6 H          39.6584   57.7201   75.7685 H       1  UNL1        0.0618
      7 C          38.9440   57.4580   77.7310 C.ar    1  UNL1       -0.0540
      8 H          39.9046   57.0914   78.0928 H       1  UNL1        0.0624
      9 C          37.8540   57.5630   78.6100 C.ar    1  UNL1       -0.0176
     10 C          37.9290   57.1890   79.9970 C.ar    1  UNL1       -0.0540
     11 H          38.8594   56.7843   80.3954 H       1  UNL1        0.0624
     12 C          36.8370   57.3360   80.8310 C.ar    1  UNL1       -0.0612
     13 H          36.9408   57.0756   81.8843 H       1  UNL1        0.0618
     14 C          35.5960   57.8100   80.3680 C.ar    1  UNL1       -0.0612
     15 H          34.7498   57.8779   81.0517 H       1  UNL1        0.0618
     16 C          35.4490   58.1880   79.0530 C.ar    1  UNL1       -0.0538
     17 H          34.4936   58.5766   78.7004 H       1  UNL1        0.0624
     18 C          35.1400   58.9890   76.2140 C.3     1  UNL1        0.0749
     19 H          34.5822   59.5102   76.9975 H       1  UNL1        0.0428
     20 H          34.5254   58.1659   75.8159 H       1  UNL1        0.0428
     21 C          35.4320   59.9670   75.1260 C.2     1  UNL1        0.3603
     22 O          35.6330   61.2430   75.3280 O.co2   1  UNL1       -0.2460
     23 O          35.5730   59.3500   73.9620 O.co2   1  UNL1       -0.2460
@<TRIPOS>BOND
     1     1     2   ar
     2     1     9   ar
     3     1    16   ar
     4     2     3   ar
     5     2    18    1
     6     3     5   ar
     7     3     4    1
     8     5     7   ar
     9     5     6    1
    10     7     9   ar
    11     7     8    1
    12     9    10   ar
    13    10    12   ar
    14    10    11    1
    15    12    14   ar
    16    12    13    1
    17    14    16   ar
    18    14    15    1
    19    16    17    1
    20    18    21    1
    21    18    19    1
    22    18    20    1
    23    21    22   ar
    24    21    23   ar
