@<TRIPOS>MOLECULE
LIGAND
 42 43 0 0 0
SMALL
GASTEIGER

@<TRIPOS>ATOM
      1 C          59.3120   58.3410   19.3710 C.2     1  UNL1        0.3435
      2 C          54.7000   56.3410   16.4550 C.2     1  UNL1       -0.0805
      3 C          53.5780   55.6270   16.1980 C.2     1  UNL1       -0.0757
      4 C          52.2620   56.2610   16.6280 C.3     1  UNL1       -0.0218
      5 C          51.7040   55.5290   17.8560 C.3     1  UNL1        0.0528
      6 C          52.4130   55.8800   19.1530 C.2     1  UNL1        0.3563
      7 C          58.7170   53.4560   19.8270 C.3     1  UNL1       -0.0358
      8 C          55.6390   53.1440   18.3090 C.3     1  UNL1        0.0788
      9 C          53.5640   54.2540   15.5130 C.3     1  UNL1       -0.0438
     10 C          59.8890   56.3640   20.5390 C.3     1  UNL1        0.1191
     11 C          58.9050   56.0110   19.4450 C.ar    1  UNL1        0.0136
     12 C          58.3470   54.7210   19.0860 C.ar    1  UNL1       -0.0011
     13 C          57.4160   54.6890   17.9740 C.ar    1  UNL1        0.1303
     14 C          57.0770   55.9100   17.2750 C.ar    1  UNL1        0.0404
     15 C          57.6550   57.1640   17.6720 C.ar    1  UNL1        0.1381
     16 C          58.5690   57.1830   18.7630 C.ar    1  UNL1        0.1074
     17 C          56.1070   55.8810   16.0990 C.3     1  UNL1       -0.0023
     18 O          59.3060   59.4970   19.0820 O.2     1  UNL1       -0.2448
     19 O          60.0360   57.8180   20.3650 O.3     1  UNL1       -0.4563
     20 O          56.8760   53.4790   17.6080 O.3     1  UNL1       -0.4944
     21 O          57.3140   58.3180   16.9870 O.3     1  UNL1       -0.5055
     22 O          52.4010   57.0740   19.5360 O.co2   1  UNL1       -0.2464
     23 O          52.9850   54.9590   19.7800 O.co2   1  UNL1       -0.2464
     24 H          54.5884   57.3066   16.9482 H       1  UNL1        0.0575
     25 H          51.5369   56.2103   15.7981 H       1  UNL1        0.0315
     26 H          52.4095   57.3279   16.8609 H       1  UNL1        0.0315
     27 H          51.7104   54.4384   17.6971 H       1  UNL1        0.0382
     28 H          50.6492   55.8268   17.9854 H       1  UNL1        0.0382
     29 H          55.2601   52.2151   17.8682 H       1  UNL1        0.0660
     30 H          55.8220   52.9975   19.3823 H       1  UNL1        0.0660
     31 H          54.8932   53.9413   18.1865 H       1  UNL1        0.0660
     32 H          52.6341   54.1302   14.9377 H       1  UNL1        0.0274
     33 H          54.4017   54.1234   14.8195 H       1  UNL1        0.0274
     34 H          53.5952   53.4437   16.2580 H       1  UNL1        0.0274
     35 H          56.4995   56.5387   15.3019 H       1  UNL1        0.0358
     36 H          56.0915   54.8740   15.6669 H       1  UNL1        0.0358
     37 H          58.0385   59.0343   17.1381 H       1  UNL1        0.2922
     38 H          57.9352   53.1810   20.5542 H       1  UNL1        0.0279
     39 H          58.8440   52.6097   19.1344 H       1  UNL1        0.0279
     40 H          59.6587   53.5778   20.3805 H       1  UNL1        0.0279
     41 H          60.8715   55.8839   20.4180 H       1  UNL1        0.0749
     42 H          59.5076   56.1576   21.5507 H       1  UNL1        0.0749
@<TRIPOS>BOND
     1     1    16    1
     2     1    18    2
     3     1    19    1
     4     2     3    2
     5     2    17    1
     6     3     4    1
     7     3     9    1
     8     4     5    1
     9     5     6    1
    10     6    22   ar
    11     6    23   ar
    12     7    12    1
    13     8    20    1
    14    10    11    1
    15    10    19    1
    16    11    12   ar
    17    11    16   ar
    18    12    13   ar
    19    13    14   ar
    20    13    20    1
    21    14    15   ar
    22    14    17    1
    23    15    16   ar
    24    15    21    1
    25     2    24    1
    26     4    25    1
    27     4    26    1
    28     5    27    1
    29     5    28    1
    30     8    29    1
    31     8    30    1
    32     8    31    1
    33     9    32    1
    34     9    33    1
    35     9    34    1
    36    17    35    1
    37    17    36    1
    38    21    37    1
    39     7    38    1
    40     7    39    1
    41     7    40    1
    42    10    41    1
    43    10    42    1
