@<TRIPOS>MOLECULE
LIGAND
 36 35 0 0 0
SMALL
GASTEIGER

@<TRIPOS>ATOM
      1 N1         16.2570   -0.2330   56.1650 N.3     1  <1>         0.3871
      2 C1         16.7400   -0.3140   57.5460 C.3     1  <1>         0.0206
      3 H1         17.3747    0.5628   57.7485 H       1  <1>         0.0198
      4 C2         17.5900   -1.5500   57.7510 C.2     1  <1>         0.3420
      5 O1         17.6820   -2.4220   56.8900 O.co2   1  <1>        -0.2483
      6 C3         15.5190   -0.3280   58.5000 C.3     1  <1>        -0.0531
      7 H2         15.9016   -0.7240   59.4598 H       1  <1>         0.0255
      8 H3         14.7880   -1.0873   58.1843 H       1  <1>         0.0255
      9 C4         14.9210    1.0660   58.8190 C.3     1  <1>        -0.0232
     10 H4         15.6236    1.8807   58.5769 H       1  <1>         0.0295
     11 H5         14.7822    1.1187   59.9161 H       1  <1>         0.0295
     12 C5         13.5590    1.3240   58.1530 C.3     1  <1>         0.0645
     13 H6         13.6775    1.6615   57.1066 H       1  <1>         0.0655
     14 H7         12.9980    2.1017   58.6840 H       1  <1>         0.0655
     15 N2         12.7440    0.0690   58.1450 N.pl3   1  <1>        -0.2786
     16 H8         13.0825   -0.7032   57.5534 H       1  <1>         0.2578
     17 C6         11.6250   -0.1430   58.8290 C.cat   1  <1>         0.3433
     18 N3         11.0650    0.7500   59.6270 N.pl3   1  <1>        -0.2786
     19 H9         10.9506    1.7273   59.3226 H       1  <1>         0.2578
     20 N4         11.0620   -1.3110   58.6820 N.pl3   1  <1>        -0.2917
     21 H10        10.1923   -1.5308   59.1881 H       1  <1>         0.2546
     22 H11        11.4873   -2.0130   58.0597 H       1  <1>         0.2546
     23 C7         10.6040    0.3170   60.9710 C.3     1  <1>         0.0643
     24 H12        11.3052   -0.4375   61.3598 H       1  <1>         0.0655
     25 H13         9.6186   -0.1746   60.8770 H       1  <1>         0.0655
     26 C8         10.5150    1.5410   61.9150 C.3     1  <1>        -0.0251
     27 H14         9.7381    1.3607   62.6787 H       1  <1>         0.0293
     28 H15        10.2223    2.4501   61.3665 H       1  <1>         0.0293
     29 C9         11.8640    1.7310   62.6530 C.3     1  <1>        -0.0624
     30 H16        11.8348    2.5915   63.3420 H       1  <1>         0.0231
     31 H17        12.1068    0.8380   63.2531 H       1  <1>         0.0231
     32 H18        12.6916    1.9005   61.9454 H       1  <1>         0.0231
     33 O2         18.1680   -1.6430   58.8340 O.co2   1  <1>        -0.2483
     34 H19        15.6205    0.4711   55.8569 H       1  <1>        -0.0889
     35 H20        17.0770   -0.1897   55.5653 H       1  <1>        -0.0889
     36 H21        15.9552   -1.1783   55.9284 H       1  <1>        -0.0889
@<TRIPOS>BOND
     1     1     2    1
     2     2     4    1
     3     2     6    1
     4     2     3    1
     5     4     5   ar
     6     4    33   ar
     7     6     9    1
     8     6     7    1
     9     6     8    1
    10     9    12    1
    11     9    10    1
    12     9    11    1
    13    12    15    1
    14    12    13    1
    15    12    14    1
    16    15    17    1
    17    15    16    1
    18    17    18    1
    19    17    20    2
    20    18    23    1
    21    18    19    1
    22    20    21    1
    23    20    22    1
    24    23    26    1
    25    23    24    1
    26    23    25    1
    27    26    29    1
    28    26    27    1
    29    26    28    1
    30    29    30    1
    31    29    31    1
    32    29    32    1
    33     1    34    1
    34     1    35    1
    35     1    36    1
