@<TRIPOS>MOLECULE
LIGAND
 69 72 0 0 0
SMALL
GASTEIGER

@<TRIPOS>ATOM
      1 C          14.5970  135.5110   -4.6940 C.3     1  UNL1        0.0718
      2 C          14.4290  134.0330   -4.0840 C.ar    1  UNL1       -0.0290
      3 C          16.1330  135.9440   -4.9550 C.2     1  UNL1        0.2258
      4 C          13.6970  135.5740   -6.0210 C.3     1  UNL1       -0.0349
      5 H          13.8256  136.5684   -6.4485 H       1  UNL1        0.0278
      6 H          12.6655  135.3954   -5.7174 H       1  UNL1        0.0278
      7 C          14.0150  136.6010   -3.6960 C.3     1  UNL1       -0.0378
      8 H          12.9275  136.5414   -3.7398 H       1  UNL1        0.0276
      9 H          14.3709  137.5762   -4.0282 H       1  UNL1        0.0276
     10 C          15.5560  133.3530   -3.5590 C.ar    1  UNL1       -0.0152
     11 H          16.5227  133.8552   -3.5973 H       1  UNL1        0.0657
     12 C          13.1740  133.3260   -4.0080 C.ar    1  UNL1       -0.0574
     13 H          12.2696  133.7980   -4.3920 H       1  UNL1        0.0621
     14 N          16.9250  135.2990   -5.9540 N.am    1  UNL1       -0.3038
     15 O          16.6390  136.8580   -4.2700 O.2     1  UNL1       -0.2746
     16 C          13.9800  134.5780   -7.1700 C.3     1  UNL1       -0.0504
     17 H          13.2468  134.7504   -7.9579 H       1  UNL1        0.0266
     18 H          13.8897  133.5667   -6.7735 H       1  UNL1        0.0266
     19 C          14.4070  136.4690   -2.2080 C.3     1  UNL1       -0.0640
     20 H          13.9441  137.2738   -1.6370 H       1  UNL1        0.0230
     21 H          14.0631  135.5082   -1.8250 H       1  UNL1        0.0230
     22 H          15.4908  136.5317   -2.1103 H       1  UNL1        0.0230
     23 C          15.4980  132.0440   -2.9810 C.ar    1  UNL1        0.1288
     24 C          13.0950  132.0150   -3.4370 C.ar    1  UNL1       -0.0580
     25 H          12.1336  131.5031   -3.3952 H       1  UNL1        0.0619
     26 C          16.4980  134.2450   -6.8830 C.3     1  UNL1        0.0144
     27 H          16.1344  133.3580   -6.3641 H       1  UNL1        0.0464
     28 H          17.3077  133.9128   -7.5328 H       1  UNL1        0.0464
     29 C          18.3160  135.7220   -6.1370 C.3     1  UNL1        0.0032
     30 H          18.9580  135.1674   -5.4526 H       1  UNL1        0.0428
     31 H          18.6242  135.5248   -7.1637 H       1  UNL1        0.0428
     32 H          18.4020  136.7889   -5.9310 H       1  UNL1        0.0428
     33 C          15.3690  134.7030   -7.7990 C.3     1  UNL1       -0.0371
     34 H          15.6306  135.7228   -8.0813 H       1  UNL1        0.0280
     35 H          15.4901  134.1178   -8.7106 H       1  UNL1        0.0280
     36 O          16.6820  131.4310   -2.4750 O.3     1  UNL1       -0.4547
     37 C          14.2550  131.3730   -2.9240 C.ar    1  UNL1       -0.0193
     38 H          14.1868  130.3748   -2.4916 H       1  UNL1        0.0654
     39 C          17.8320  132.2480   -2.3910 C.ar    1  UNL1        0.1459
     40 C          18.8010  132.3610   -3.4460 C.ar    1  UNL1        0.0939
     41 C          18.0070  132.9980   -1.1940 C.ar    1  UNL1       -0.0159
     42 H          17.2688  132.9059   -0.3973 H       1  UNL1        0.0657
     43 C          19.9210  133.2120   -3.2750 C.ar    1  UNL1       -0.0406
     44 H          20.6635  133.2950   -4.0686 H       1  UNL1        0.0632
     45 C          18.6250  131.7080   -4.7090 C.1     1  UNL1        0.1028
     46 C          19.1270  133.8700   -1.0090 C.ar    1  UNL1       -0.0498
     47 C          20.0830  133.9570   -2.0780 C.ar    1  UNL1       -0.0581
     48 H          20.9500  134.6082   -1.9674 H       1  UNL1        0.0620
     49 N          18.4220  131.2060   -5.7280 N.1     1  UNL1       -0.1907
     50 C          19.3220  134.6930    0.2930 C.3     1  UNL1       -0.0048
     51 C          19.3080  133.8390    1.5610 C.ar    1  UNL1        0.0303
     52 C          18.2190  135.7940    0.4250 C.3     1  UNL1       -0.0662
     53 H          18.3759  136.3578    1.3445 H       1  UNL1        0.0223
     54 H          18.2750  136.4694   -0.4287 H       1  UNL1        0.0223
     55 H          17.2363  135.3232    0.4513 H       1  UNL1        0.0223
     56 N          20.6330  135.3480    0.2530 N.3     1  UNL1        0.3880
     57 H          20.7698  135.8964    1.1141 H       1  UNL1       -0.0882
     58 H          21.3719  134.6342    0.1801 H       1  UNL1       -0.0882
     59 H          20.6796  135.9743   -0.5634 H       1  UNL1       -0.0882
     60 N          20.0940  132.7240    1.7930 N.ar    1  UNL1       -0.3381
     61 C          18.5490  133.9460    2.7280 C.ar    1  UNL1        0.0475
     62 H          17.8102  134.7303    2.8928 H       1  UNL1        0.0847
     63 C          19.7520  132.2710    3.0230 C.ar    1  UNL1        0.0958
     64 H          20.2129  131.3893    3.4682 H       1  UNL1        0.1029
     65 C          21.1080  132.0520    0.9940 C.3     1  UNL1        0.0129
     66 H          20.8871  132.1892   -0.0645 H       1  UNL1        0.0456
     67 H          22.0872  132.4751    1.2181 H       1  UNL1        0.0456
     68 H          21.1102  130.9877    1.2292 H       1  UNL1        0.0456
     69 N          18.8250  132.9690    3.6430 N.ar    1  UNL1       -0.2438
@<TRIPOS>BOND
     1     1     2    1
     2     1     3    1
     3     1     4    1
     4     1     7    1
     5     2    10   ar
     6     2    12   ar
     7     3    14   am
     8     3    15    2
     9     4    16    1
    10     4     5    1
    11     4     6    1
    12     7    19    1
    13     7     8    1
    14     7     9    1
    15    10    23   ar
    16    10    11    1
    17    12    24   ar
    18    12    13    1
    19    14    26    1
    20    14    29    1
    21    16    33    1
    22    16    17    1
    23    16    18    1
    24    19    20    1
    25    19    21    1
    26    19    22    1
    27    23    36    1
    28    23    37   ar
    29    24    37   ar
    30    24    25    1
    31    26    33    1
    32    26    27    1
    33    26    28    1
    34    29    30    1
    35    29    31    1
    36    29    32    1
    37    33    34    1
    38    33    35    1
    39    36    39    1
    40    37    38    1
    41    39    40   ar
    42    39    41   ar
    43    40    43   ar
    44    40    45    1
    45    41    46   ar
    46    41    42    1
    47    43    47   ar
    48    43    44    1
    49    45    49    3
    50    46    47   ar
    51    46    50    1
    52    47    48    1
    53    50    51    1
    54    50    52    1
    55    50    56    1
    56    51    60   ar
    57    51    61   ar
    58    52    53    1
    59    52    54    1
    60    52    55    1
    61    56    57    1
    62    56    58    1
    63    56    59    1
    64    60    63   ar
    65    60    65    1
    66    61    69   ar
    67    61    62    1
    68    63    69   ar
    69    63    64    1
    70    65    66    1
    71    65    67    1
    72    65    68    1
