@<TRIPOS>MOLECULE
LIGAND
 31 31 0 0 0
SMALL
GASTEIGER

@<TRIPOS>ATOM
      1 C          84.1890   77.2130   97.3480 C.3     1  UNL1       -0.0357
      2 C          82.8540   76.3810   97.0320 C.3     1  UNL1        0.0147
      3 N          82.6620   75.5160   98.2090 N.am    1  UNL1       -0.3028
      4 C          84.0340   75.2340   98.6920 C.3     1  UNL1        0.0147
      5 C          84.6320   76.6600   98.7760 C.3     1  UNL1       -0.0357
      6 C          81.8000   74.3630   97.9530 C.2     1  UNL1        0.2013
      7 C          80.4200   74.3850   97.4480 C.3     1  UNL1       -0.0025
      8 C          79.2960   74.2300   98.4320 C.3     1  UNL1       -0.0515
      9 C          79.2210   75.2820   99.4580 C.3     1  UNL1       -0.0637
     10 O          82.3220   73.1150   98.2010 O.2     1  UNL1       -0.2774
     11 N          80.2150   73.3530   96.3790 N.3     1  UNL1        0.3858
     12 C          77.8050   74.2860   97.6340 C.3     1  UNL1       -0.0637
     13 H          84.0448   78.3052   97.3256 H       1  UNL1        0.0281
     14 H          84.9692   77.0018   96.5963 H       1  UNL1        0.0281
     15 H          83.0069   75.7667   96.1280 H       1  UNL1        0.0464
     16 H          81.9648   77.0068   96.8900 H       1  UNL1        0.0464
     17 H          84.5937   74.6254   97.9563 H       1  UNL1        0.0464
     18 H          83.9738   74.6880   99.6418 H       1  UNL1        0.0464
     19 H          84.1246   77.2293   99.5733 H       1  UNL1        0.0281
     20 H          85.7131   76.6811   98.9677 H       1  UNL1        0.0281
     21 H          80.2284   75.3407   96.9336 H       1  UNL1        0.0180
     22 H          79.3615   73.2510   98.9420 H       1  UNL1        0.0284
     23 H          78.3776   75.1033  100.1491 H       1  UNL1        0.0232
     24 H          80.1247   75.3446  100.0898 H       1  UNL1        0.0232
     25 H          79.0731   76.2819   99.0139 H       1  UNL1        0.0232
     26 H          79.2753   73.3756   96.0083 H       1  UNL1       -0.0890
     27 H          80.8440   73.4563   95.5930 H       1  UNL1       -0.0890
     28 H          80.3716   72.4213   96.7477 H       1  UNL1       -0.0890
     29 H          76.9908   74.2615   98.3790 H       1  UNL1        0.0232
     30 H          77.7189   75.2337   97.0771 H       1  UNL1        0.0232
     31 H          77.6483   73.4472   96.9407 H       1  UNL1        0.0232
@<TRIPOS>BOND
     1     1     2    1
     2     1     5    1
     3     2     3    1
     4     3     4    1
     5     3     6   am
     6     4     5    1
     7     6     7    1
     8     6    10    2
     9     7     8    1
    10     7    11    1
    11     8     9    1
    12     8    12    1
    13     1    13    1
    14     1    14    1
    15     2    15    1
    16     2    16    1
    17     4    17    1
    18     4    18    1
    19     5    19    1
    20     5    20    1
    21     7    21    1
    22     8    22    1
    23     9    23    1
    24     9    24    1
    25     9    25    1
    26    11    26    1
    27    11    27    1
    28    11    28    1
    29    12    29    1
    30    12    30    1
    31    12    31    1
