@<TRIPOS>MOLECULE
LIGAND
 21 20 0 0 0
SMALL
GASTEIGER

@<TRIPOS>ATOM
      1 O          33.3200   33.2000   44.9730 O.co2   1  UNL1       -0.2434
      2 C          33.3260   34.2000   45.8110 C.2     1  UNL1        0.3845
      3 O          33.2480   35.3780   45.4420 O.co2   1  UNL1       -0.2434
      4 C          33.4000   33.8580   47.3360 C.3     1  UNL1        0.1629
      5 H          33.9739   34.6501   47.8350 H       1  UNL1        0.0718
      6 O          34.1460   32.6030   47.4910 O.3     1  UNL1       -0.3798
      7 H          33.4908   31.8378   47.7054 H       1  UNL1        0.2105
      8 C          31.9500   33.7180   47.9770 C.3     1  UNL1        0.0247
      9 C          31.1660   35.0230   47.8550 C.3     1  UNL1       -0.0548
     10 H          30.2164   34.9761   48.4122 H       1  UNL1        0.0237
     11 H          31.7376   35.8834   48.2401 H       1  UNL1        0.0237
     12 H          30.9152   35.2515   46.8054 H       1  UNL1        0.0237
     13 C          31.1820   32.5830   47.3280 C.3     1  UNL1       -0.0548
     14 H          30.1936   32.4518   47.7992 H       1  UNL1        0.0237
     15 H          30.9997   32.7764   46.2569 H       1  UNL1        0.0237
     16 H          31.7045   31.6165   47.3976 H       1  UNL1        0.0237
     17 C          32.1890   33.4150   49.4770 C.3     1  UNL1        0.0522
     18 H          32.7015   32.4463   49.6239 H       1  UNL1        0.0563
     19 H          31.2385   33.3501   50.0267 H       1  UNL1        0.0563
     20 O          32.9210   34.4570   50.1000 O.3     1  UNL1       -0.3944
     21 H          33.8122   34.5961   49.6026 H       1  UNL1        0.2094
@<TRIPOS>BOND
     1     1     2   ar
     2     2     3   ar
     3     2     4    1
     4     4     6    1
     5     4     8    1
     6     4     5    1
     7     6     7    1
     8     8     9    1
     9     8    13    1
    10     8    17    1
    11     9    10    1
    12     9    11    1
    13     9    12    1
    14    13    14    1
    15    13    15    1
    16    13    16    1
    17    17    20    1
    18    17    18    1
    19    17    19    1
    20    20    21    1
