@<TRIPOS>MOLECULE
LIGAND
 27 28 0 0 0
SMALL
GASTEIGER

@<TRIPOS>ATOM
      1 N          15.4350   16.8530   20.4090 N.ar    1  UNL1       -0.3374
      2 H          14.5431   16.6270   19.9459 H       1  UNL1        0.1672
      3 C          16.5900   17.0760   19.8060 C.ar    1  UNL1        0.1085
      4 C          16.7440   17.0260   18.2840 C.3     1  UNL1        0.0054
      5 H          16.7972   15.9751   17.9474 H       1  UNL1        0.0343
      6 H          17.7403   17.4538   18.0926 H       1  UNL1        0.0343
      7 C          15.6650   17.7690   17.4320 C.3     1  UNL1       -0.0465
      8 H          15.2175   18.5986   18.0062 H       1  UNL1        0.0269
      9 H          14.8412   17.0877   17.1591 H       1  UNL1        0.0269
     10 C          16.3420   18.3730   16.1580 C.3     1  UNL1       -0.0555
     11 H          16.8339   17.5653   15.5872 H       1  UNL1        0.0263
     12 H          17.1380   19.0717   16.4725 H       1  UNL1        0.0263
     13 C          15.3430   19.1170   15.2380 C.3     1  UNL1       -0.0653
     14 H          15.8482   19.5337   14.3520 H       1  UNL1        0.0230
     15 H          14.5510   18.4358   14.8875 H       1  UNL1        0.0230
     16 H          14.8610   19.9493   15.7758 H       1  UNL1        0.0230
     17 N          17.4900   17.3220   20.6050 N.ar    1  UNL1       -0.2268
     18 C          17.0380   17.3010   21.9580 C.ar    1  UNL1        0.1598
     19 C          17.7020   17.5270   23.2770 C.ar    1  UNL1        0.2908
     20 N          16.8750   17.4100   24.4010 N.ar    1  UNL1       -0.2615
     21 H          17.2899   17.5581   25.3320 H       1  UNL1        0.1901
     22 N          15.4120   17.0790   24.3150 N.ar    1  UNL1       -0.2615
     23 H          14.8735   17.0118   25.1904 H       1  UNL1        0.1901
     24 C          14.7400   16.8560   23.0980 C.ar    1  UNL1        0.2888
     25 O          13.5080   16.5760   23.0100 O.2     1  UNL1       -0.2642
     26 C          15.6460   16.9830   21.8390 C.ar    1  UNL1        0.1381
     27 O          18.9000   17.7960   23.3310 O.2     1  UNL1       -0.2641
@<TRIPOS>BOND
     1     1     3   ar
     2     1    26   ar
     3     1     2    1
     4     3     4    1
     5     3    17   ar
     6     4     7    1
     7     4     5    1
     8     4     6    1
     9     7    10    1
    10     7     8    1
    11     7     9    1
    12    10    13    1
    13    10    11    1
    14    10    12    1
    15    13    14    1
    16    13    15    1
    17    13    16    1
    18    17    18   ar
    19    18    19   ar
    20    18    26   ar
    21    19    20   ar
    22    19    27    2
    23    20    22   ar
    24    20    21    1
    25    22    24   ar
    26    22    23    1
    27    24    25    2
    28    24    26   ar
