@<TRIPOS>MOLECULE
LIGAND
 47 49 0 0 0
SMALL
GASTEIGER

@<TRIPOS>ATOM
      1 O          17.2230    5.2550    6.1390 O.2     1  UNL1       -0.2425
      2 C          18.0230    4.3770    6.2680 C.ar    1  UNL1        0.3725
      3 N          17.9770    3.3560    7.1890 N.ar    1  UNL1       -0.1509
      4 C          18.9470    2.3970    7.2460 C.ar    1  UNL1        0.2945
      5 O          18.9550    1.4890    8.0470 O.2     1  UNL1       -0.2640
      6 N          19.0230    4.4100    5.4000 N.ar    1  UNL1       -0.1802
      7 N          20.0320    3.4130    5.4060 N.ar    1  UNL1       -0.1650
      8 C          20.0190    2.4460    6.2520 C.ar    1  UNL1        0.1147
      9 H          20.7915    1.6774    6.2294 H       1  UNL1        0.0904
     10 C          19.2990    5.4070    4.4430 C.ar    1  UNL1        0.0714
     11 C          20.4930    6.1760    4.7530 C.ar    1  UNL1       -0.0297
     12 H          21.0919    5.9476    5.6346 H       1  UNL1        0.0643
     13 C          20.8590    7.2330    3.8770 C.ar    1  UNL1       -0.0059
     14 C          22.0400    8.0590    4.1150 C.3     1  UNL1       -0.0362
     15 H          22.9152    7.5765    3.6799 H       1  UNL1        0.0279
     16 H          21.8987    9.0370    3.6550 H       1  UNL1        0.0279
     17 H          22.1887    8.1808    5.1879 H       1  UNL1        0.0279
     18 C          18.5530    5.7190    3.3210 C.ar    1  UNL1       -0.0297
     19 H          17.6193    5.1846    3.1457 H       1  UNL1        0.0643
     20 C          18.9560    6.7020    2.3970 C.ar    1  UNL1       -0.0059
     21 C          18.0880    7.0200    1.1620 C.3     1  UNL1       -0.0362
     22 H          18.0951    8.0945    0.9792 H       1  UNL1        0.0279
     23 H          18.4897    6.5013    0.2916 H       1  UNL1        0.0279
     24 H          17.0650    6.6892    1.3413 H       1  UNL1        0.0279
     25 C          20.1030    7.4820    2.6960 C.ar    1  UNL1        0.1343
     26 O          20.3800    8.5040    1.8130 O.3     1  UNL1       -0.4555
     27 C          21.4190    8.3390    0.9100 C.ar    1  UNL1        0.1290
     28 C          21.6800    7.0750    0.2610 C.ar    1  UNL1       -0.0159
     29 H          21.0727    6.1918    0.4590 H       1  UNL1        0.0655
     30 C          22.2200    9.5120    0.6640 C.ar    1  UNL1       -0.0124
     31 H          22.0033   10.4492    1.1767 H       1  UNL1        0.0658
     32 C          23.2950    9.4250   -0.2570 C.ar    1  UNL1        0.0001
     33 C          24.2110   10.6460   -0.5040 C.3     1  UNL1       -0.0180
     34 H          24.8058   10.4373   -1.3933 H       1  UNL1        0.0345
     35 C          23.2930   11.8890   -0.7160 C.3     1  UNL1       -0.0585
     36 H          23.9092   12.7704   -0.8933 H       1  UNL1        0.0235
     37 H          22.6450   11.7203   -1.5761 H       1  UNL1        0.0235
     38 H          22.6823   12.0462    0.1731 H       1  UNL1        0.0235
     39 C          25.0970   10.7800    0.7600 C.3     1  UNL1       -0.0585
     40 H          25.7693   11.6302    0.6446 H       1  UNL1        0.0235
     41 H          24.4636   10.9342    1.6336 H       1  UNL1        0.0235
     42 H          25.6823    9.8700    0.8922 H       1  UNL1        0.0235
     43 C          23.5830    8.1750   -0.8550 C.ar    1  UNL1        0.1205
     44 C          22.7560    7.0450   -0.6370 C.ar    1  UNL1       -0.0164
     45 H          22.9628    6.1251   -1.1839 H       1  UNL1        0.0655
     46 O          24.6370    8.0360   -1.7310 O.3     1  UNL1       -0.5065
     47 H          24.8021    8.9301   -2.2149 H       1  UNL1        0.2921
@<TRIPOS>BOND
     1     1     2    2
     2     2     3   ar
     3     2     6   ar
     4     3     4   ar
     5     4     5    2
     6     4     8   ar
     7     6     7   ar
     8     6    10    1
     9     7     8   ar
    10     8     9    1
    11    10    11   ar
    12    10    18   ar
    13    11    13   ar
    14    11    12    1
    15    13    14    1
    16    13    25   ar
    17    14    15    1
    18    14    16    1
    19    14    17    1
    20    18    20   ar
    21    18    19    1
    22    20    21    1
    23    20    25   ar
    24    21    22    1
    25    21    23    1
    26    21    24    1
    27    25    26    1
    28    26    27    1
    29    27    28   ar
    30    27    30   ar
    31    28    44   ar
    32    28    29    1
    33    30    32   ar
    34    30    31    1
    35    32    33    1
    36    32    43   ar
    37    33    35    1
    38    33    39    1
    39    33    34    1
    40    35    36    1
    41    35    37    1
    42    35    38    1
    43    39    40    1
    44    39    41    1
    45    39    42    1
    46    43    44   ar
    47    43    46    1
    48    44    45    1
    49    46    47    1
