@<TRIPOS>MOLECULE
LIGAND
 38 39 0 0 0
SMALL
GASTEIGER

@<TRIPOS>ATOM
      1 O          44.6210   13.4550   17.6070 O.co2   1  UNL1       -0.2460
      2 C          43.8740   14.4540   18.1410 C.2     1  UNL1        0.3603
      3 O          42.7640   14.8300   17.7390 O.co2   1  UNL1       -0.2460
      4 C          44.4900   15.0760   19.3010 C.3     1  UNL1        0.0744
      5 H          44.6117   14.2553   20.0288 H       1  UNL1        0.0428
      6 H          43.7658   15.7759   19.7566 H       1  UNL1        0.0428
      7 C          45.7960   15.7930   19.2060 C.ar    1  UNL1       -0.0336
      8 C          46.7550   15.4270   20.1980 C.ar    1  UNL1       -0.0360
      9 H          46.5062   14.6672   20.9389 H       1  UNL1        0.0636
     10 C          48.0330   16.0490   20.2240 C.ar    1  UNL1        0.0849
     11 C          48.3870   17.0690   19.2560 C.ar    1  UNL1        0.1649
     12 O          49.5690   17.7330   19.2050 O.3     1  UNL1       -0.4531
     13 C          49.7420   18.9740   19.9740 C.ar    1  UNL1        0.1291
     14 C          49.0350   19.2610   21.2370 C.ar    1  UNL1       -0.0159
     15 H          48.3312   18.5357   21.6453 H       1  UNL1        0.0655
     16 C          49.2750   20.4960   21.9270 C.ar    1  UNL1       -0.0164
     17 H          48.7438   20.7019   22.8562 H       1  UNL1        0.0655
     18 C          50.2030   21.4660   21.4150 C.ar    1  UNL1        0.1205
     19 O          50.4060   22.6440   22.1190 O.3     1  UNL1       -0.5065
     20 H          51.2808   23.0868   21.8034 H       1  UNL1        0.2921
     21 C          50.9200   21.2220   20.1640 C.ar    1  UNL1        0.0001
     22 C          50.6760   19.9660   19.4610 C.ar    1  UNL1       -0.0124
     23 H          51.2058   19.7661   18.5296 H       1  UNL1        0.0658
     24 C          51.9350   22.2960   19.6090 C.3     1  UNL1       -0.0180
     25 H          52.2714   22.9466   20.4291 H       1  UNL1        0.0345
     26 C          51.1840   23.1260   18.5450 C.3     1  UNL1       -0.0585
     27 H          51.8201   23.9140   18.1124 H       1  UNL1        0.0235
     28 H          50.8481   22.4733   17.7217 H       1  UNL1        0.0235
     29 H          50.2895   23.6123   18.9681 H       1  UNL1        0.0235
     30 C          53.2190   21.6470   18.9470 C.3     1  UNL1       -0.0585
     31 H          53.9190   22.4371   18.6323 H       1  UNL1        0.0235
     32 H          53.7464   20.9826   19.6495 H       1  UNL1        0.0235
     33 H          52.9544   21.0619   18.0524 H       1  UNL1        0.0235
     34 C          47.4300   17.4280   18.2780 C.ar    1  UNL1        0.0849
     35 C          46.1400   16.8120   18.2200 C.ar    1  UNL1       -0.0360
     36 H          45.4242   17.0999   17.4500 H       1  UNL1        0.0636
     37 CL         47.7790   18.6250   17.1200 Cl      1  UNL1       -0.0797
     38 CL         49.1380   15.5690   21.3860 Cl      1  UNL1       -0.0797
@<TRIPOS>BOND
     1     1     2   ar
     2     2     3   ar
     3     2     4    1
     4     4     7    1
     5     4     5    1
     6     4     6    1
     7     7     8   ar
     8     7    35   ar
     9     8    10   ar
    10     8     9    1
    11    10    11   ar
    12    10    38    1
    13    11    12    1
    14    11    34   ar
    15    12    13    1
    16    13    14   ar
    17    13    22   ar
    18    14    16   ar
    19    14    15    1
    20    16    18   ar
    21    16    17    1
    22    18    19    1
    23    18    21   ar
    24    19    20    1
    25    21    22   ar
    26    21    24    1
    27    22    23    1
    28    24    26    1
    29    24    30    1
    30    24    25    1
    31    26    27    1
    32    26    28    1
    33    26    29    1
    34    30    31    1
    35    30    32    1
    36    30    33    1
    37    34    35   ar
    38    34    37    1
    39    35    36    1
