@<TRIPOS>MOLECULE
LIGAND
 34 36 0 0 0
SMALL
GASTEIGER

@<TRIPOS>ATOM
      1 O          17.1440   22.5530   10.0490 O.3     1  UNL1       -0.3946
      2 H          17.8323   23.1892    9.6220 H       1  UNL1        0.2094
      3 O          18.0440   18.2640    9.2600 O.3     1  UNL1       -0.3913
      4 H          17.1841   17.9524    8.7863 H       1  UNL1        0.2098
      5 O          22.6070   20.6670    9.1950 O.2     1  UNL1       -0.2465
      6 O          23.4170   24.9120   10.1500 O.2     1  UNL1       -0.2674
      7 N          20.8310   21.9980    9.5080 N.ar    1  UNL1       -0.2938
      8 N          23.0100   22.7740    9.6670 N.ar    1  UNL1       -0.2747
      9 H          24.0193   22.5767    9.6095 H       1  UNL1        0.1734
     10 C          17.4980   20.6080    8.6280 C.3     1  UNL1        0.0133
     11 H          16.9715   20.0408    7.8399 H       1  UNL1        0.0351
     12 C          17.8600   19.6150    9.7590 C.3     1  UNL1        0.0626
     13 H          17.0588   19.5637   10.5197 H       1  UNL1        0.0597
     14 C          19.1490   20.1770   10.3890 C.3     1  UNL1       -0.0024
     15 H          19.7221   19.3702   10.8747 H       1  UNL1        0.0313
     16 H          18.9219   20.9156   11.1721 H       1  UNL1        0.0313
     17 C          19.9170   20.8580    9.2260 C.3     1  UNL1        0.0557
     18 C          18.8630   21.1100    8.0720 C.3     1  UNL1       -0.0077
     19 H          18.8509   22.0804    7.5690 H       1  UNL1        0.0328
     20 C          16.5390   21.7590    9.0360 C.3     1  UNL1        0.0497
     21 H          16.2606   22.3771    8.1629 H       1  UNL1        0.0561
     22 H          15.6073   21.3639    9.4676 H       1  UNL1        0.0561
     23 C          22.1550   21.7860    9.4520 C.ar    1  UNL1        0.3298
     24 C          20.0420   20.2300    7.7840 C.3     1  UNL1       -0.0234
     25 H          19.9230   19.1527    7.6491 H       1  UNL1        0.0292
     26 H          20.8125   20.6538    7.1351 H       1  UNL1        0.0292
     27 C          22.6150   24.0140    9.9550 C.ar    1  UNL1        0.2568
     28 C          21.1550   24.2980   10.0410 C.ar    1  UNL1        0.0302
     29 C          20.3320   23.2210    9.7980 C.ar    1  UNL1        0.0180
     30 H          19.2514   23.3577    9.8405 H       1  UNL1        0.0815
     31 C          20.6490   25.6890   10.3740 C.3     1  UNL1       -0.0332
     32 H          20.9501   26.4137    9.6005 H       1  UNL1        0.0280
     33 H          19.5518   25.7272   10.4568 H       1  UNL1        0.0280
     34 H          21.0641   26.0400   11.3328 H       1  UNL1        0.0280
@<TRIPOS>BOND
     1     1    20    1
     2     1     2    1
     3     3    12    1
     4     3     4    1
     5     5    23    2
     6     6    27    2
     7     7    17    1
     8     7    23   ar
     9     7    29   ar
    10     8    23   ar
    11     8    27   ar
    12     8     9    1
    13    10    12    1
    14    10    18    1
    15    10    20    1
    16    10    11    1
    17    12    14    1
    18    12    13    1
    19    14    17    1
    20    14    15    1
    21    14    16    1
    22    17    18    1
    23    17    24    1
    24    18    24    1
    25    18    19    1
    26    20    21    1
    27    20    22    1
    28    24    25    1
    29    24    26    1
    30    27    28   ar
    31    28    29   ar
    32    28    31    1
    33    29    30    1
    34    31    32    1
    35    31    33    1
    36    31    34    1
