@<TRIPOS>MOLECULE
LIGAND
 24 24 0 0 0
SMALL
GASTEIGER

@<TRIPOS>ATOM
      1 N          30.6770   -3.3700   50.5160 N.3     1  TYR1        0.3873
      2 H1         30.3442   -2.6002   51.0612 H       1  TYR1       -0.0889
      3 H2         29.9158   -4.0157   50.3507 H       1  TYR1       -0.0889
      4 H3         31.3057   -3.9679   51.0497 H       1  TYR1       -0.0889
      5 CA         31.3780   -3.1310   49.2550 C.3     1  TYR1        0.0245
      6 HA         30.6548   -2.7423   48.5226 H       1  TYR1        0.0201
      7 C          31.9670   -4.4050   48.6940 C.2     1  TYR1        0.3423
      8 O          32.0170   -5.4920   49.3380 O.co2   1  TYR1       -0.2482
      9 CB         32.4890   -2.1160   49.5260 C.3     1  TYR1       -0.0306
     10 HB1        33.1000   -2.0466   48.6088 H       1  TYR1        0.0302
     11 HB2        33.1775   -2.5006   50.2981 H       1  TYR1        0.0302
     12 CG         32.0300   -0.7150   49.8830 C.ar    1  TYR1       -0.0482
     13 CD1        32.2930   -0.2240   51.1250 C.ar    1  TYR1       -0.0552
     14 HD1        32.8422   -0.8222   51.8521 H       1  TYR1        0.0621
     15 CD2        31.3170    0.0570   48.9730 C.ar    1  TYR1       -0.0552
     16 HD2        31.0749   -0.3626   47.9966 H       1  TYR1        0.0621
     17 CE1        31.8570    1.0320   51.4460 C.ar    1  TYR1       -0.0199
     18 HE1        32.0337    1.4118   52.4523 H       1  TYR1        0.0654
     19 CE2        30.9070    1.3420   49.2730 C.ar    1  TYR1       -0.0199
     20 HE2        30.3714    1.9508   48.5446 H       1  TYR1        0.0654
     21 CZ         31.2050    1.8270   50.5410 C.ar    1  TYR1        0.1169
     22 OH         30.8150    2.9790   50.9180 O.3     1  TYR1       -0.5068
     23 HH         31.5881    3.6526   50.8207 H       1  TYR1        0.2921
     24 OXT        32.3720   -4.3160   47.5370 O.co2   1  TYR1       -0.2482
@<TRIPOS>BOND
     1     1     5    1
     2     1     2    1
     3     1     3    1
     4     1     4    1
     5     5     7    1
     6     5     9    1
     7     5     6    1
     8     7     8   ar
     9     7    24   ar
    10     9    12    1
    11     9    10    1
    12     9    11    1
    13    12    13   ar
    14    12    15   ar
    15    13    17   ar
    16    13    14    1
    17    15    19   ar
    18    15    16    1
    19    17    21   ar
    20    17    18    1
    21    19    21   ar
    22    19    20    1
    23    21    22    1
    24    22    23    1
