@<TRIPOS>MOLECULE
LIGAND
 45 48 0 0 0
SMALL
GASTEIGER

@<TRIPOS>ATOM
      1 O          49.9800   11.0930   14.9440 O.3     1  UNL1       -0.3904
      2 H          49.5188   11.4292   15.8014 H       1  UNL1        0.2098
      3 C          49.5960   11.8940   13.8620 C.3     1  UNL1        0.0693
      4 H          48.7429   11.4281   13.3371 H       1  UNL1        0.0607
      5 H          50.4405   11.9187   13.1595 H       1  UNL1        0.0607
      6 C          49.2210   13.3090   14.2740 C.ar    1  UNL1       -0.0204
      7 C          50.1470   14.3930   14.0730 C.ar    1  UNL1       -0.0563
      8 H          51.1185   14.1989   13.6184 H       1  UNL1        0.0621
      9 C          49.8040   15.7040   14.4610 C.ar    1  UNL1       -0.0597
     10 H          50.5116   16.5178   14.3024 H       1  UNL1        0.0618
     11 C          48.5350   15.9740   15.0610 C.ar    1  UNL1       -0.0405
     12 H          48.2765   16.9890   15.3626 H       1  UNL1        0.0636
     13 C          47.6040   14.9030   15.2640 C.ar    1  UNL1        0.0339
     14 N          46.3300   15.0460   15.8740 N.pl3   1  UNL1       -0.2836
     15 H          45.6506   14.2951   15.6860 H       1  UNL1        0.1550
     16 C          45.8970   16.0610   16.6810 C.ar    1  UNL1        0.2214
     17 N          44.6140   15.9020   17.1770 N.ar    1  UNL1       -0.2219
     18 C          44.1550   16.8600   18.0020 C.ar    1  UNL1        0.0418
     19 H          43.1460   16.7611   18.4022 H       1  UNL1        0.0838
     20 C          44.9250   17.9970   18.3770 C.ar    1  UNL1        0.0365
     21 C          44.4520   19.0260   19.2590 C.ar    1  UNL1       -0.0366
     22 H          43.4492   18.9555   19.6803 H       1  UNL1        0.0633
     23 C          45.2430   20.0910   19.5760 C.ar    1  UNL1        0.0502
     24 C          46.6220   20.2330   18.9780 C.ar    1  UNL1        0.2604
     25 O          47.4050   21.1590   19.1990 O.2     1  UNL1       -0.2670
     26 N          47.0620   19.1770   18.1030 N.ar    1  UNL1       -0.2953
     27 C          46.2420   18.0920   17.7880 C.ar    1  UNL1        0.1482
     28 N          46.7060   17.1150   16.9680 N.ar    1  UNL1       -0.1961
     29 C          48.4070   19.2460   17.4790 C.3     1  UNL1        0.0167
     30 H          48.9845   20.0864   17.8808 H       1  UNL1        0.0457
     31 H          48.9888   18.3308   17.6769 H       1  UNL1        0.0457
     32 H          48.3352   19.3797   16.3870 H       1  UNL1        0.0457
     33 C          44.7990   21.1600   20.4950 C.ar    1  UNL1        0.0239
     34 C          44.2640   22.3890   20.0170 C.ar    1  UNL1        0.0502
     35 CL         44.0600   22.6440   18.2990 Cl      1  UNL1       -0.0829
     36 C          43.8570   23.4190   20.9290 C.ar    1  UNL1       -0.0427
     37 H          43.4273   24.3453   20.5477 H       1  UNL1        0.0632
     38 C          44.0140   23.2320   22.3330 C.ar    1  UNL1       -0.0590
     39 H          43.7280   24.0279   23.0207 H       1  UNL1        0.0618
     40 C          44.5430   22.0100   22.8440 C.ar    1  UNL1       -0.0427
     41 H          44.6403   21.8509   23.9179 H       1  UNL1        0.0632
     42 C          44.9430   20.9980   21.9160 C.ar    1  UNL1        0.0502
     43 CL         45.5840   19.5110   22.5540 Cl      1  UNL1       -0.0829
     44 C          47.9620   13.5700   14.8660 C.ar    1  UNL1       -0.0351
     45 H          47.2581   12.7524   15.0212 H       1  UNL1        0.0639
@<TRIPOS>BOND
     1     1     3    1
     2     1     2    1
     3     3     6    1
     4     3     4    1
     5     3     5    1
     6     6     7   ar
     7     6    44   ar
     8     7     9   ar
     9     7     8    1
    10     9    11   ar
    11     9    10    1
    12    11    13   ar
    13    11    12    1
    14    13    14    1
    15    13    44   ar
    16    14    16    1
    17    14    15    1
    18    16    17   ar
    19    16    28   ar
    20    17    18   ar
    21    18    20   ar
    22    18    19    1
    23    20    21   ar
    24    20    27   ar
    25    21    23   ar
    26    21    22    1
    27    23    24   ar
    28    23    33    1
    29    24    25    2
    30    24    26   ar
    31    26    27   ar
    32    26    29    1
    33    27    28   ar
    34    29    30    1
    35    29    31    1
    36    29    32    1
    37    33    34   ar
    38    33    42   ar
    39    34    35    1
    40    34    36   ar
    41    36    38   ar
    42    36    37    1
    43    38    40   ar
    44    38    39    1
    45    40    42   ar
    46    40    41    1
    47    42    43    1
    48    44    45    1
