@<TRIPOS>MOLECULE
LIGAND
 39 41 0 0 0
SMALL
GASTEIGER

@<TRIPOS>ATOM
      1 S          15.2890    2.8460   16.6520 S.O2    1  UNL1        0.0723
      2 C          15.9880    4.1960   15.7120 C.ar    1  UNL1        0.1067
      3 C          15.1860    5.2150   15.2560 C.ar    1  UNL1       -0.0333
      4 H          14.1073    5.1708   15.4062 H       1  UNL1        0.0638
      5 C          15.7540    6.3000   14.6040 C.ar    1  UNL1       -0.0344
      6 H          15.1303    7.1113   14.2288 H       1  UNL1        0.0639
      7 C          17.1130    6.3320   14.4410 C.ar    1  UNL1        0.0661
      8 C          17.9260    5.3110   14.8920 C.ar    1  UNL1       -0.0344
      9 H          19.0042    5.3614   14.7403 H       1  UNL1        0.0639
     10 C          17.3580    4.2110   15.5450 C.ar    1  UNL1       -0.0333
     11 H          17.9779    3.3922   15.9101 H       1  UNL1        0.0638
     12 N          17.6970    7.5280   13.8490 N.ar    1  UNL1       -0.2316
     13 C          17.5200    8.1910   12.6670 C.ar    1  UNL1        0.0752
     14 C          16.7620    7.8190   11.4780 C.ar    1  UNL1        0.0005
     15 C          16.8180    6.4970   11.0640 C.ar    1  UNL1       -0.0523
     16 H          17.3926    5.7718   11.6402 H       1  UNL1        0.0624
     17 C          16.1520    6.0970    9.9300 C.ar    1  UNL1       -0.0582
     18 H          16.2349    5.0655    9.5876 H       1  UNL1        0.0620
     19 C          15.3810    6.9930    9.2250 C.ar    1  UNL1       -0.0504
     20 C          14.6630    6.5370    7.9810 C.3     1  UNL1       -0.0397
     21 H          14.1787    7.3907    7.5068 H       1  UNL1        0.0278
     22 H          15.3796    6.0956    7.2884 H       1  UNL1        0.0278
     23 H          13.9106    5.7945    8.2467 H       1  UNL1        0.0278
     24 C          15.2560    8.3000    9.6820 C.ar    1  UNL1       -0.0582
     25 H          14.5927    8.9980    9.1711 H       1  UNL1        0.0620
     26 C          15.9710    8.7060   10.7780 C.ar    1  UNL1       -0.0523
     27 H          15.9139    9.7453   11.1015 H       1  UNL1        0.0624
     28 C          18.3570    9.3030   12.7050 C.ar    1  UNL1       -0.0039
     29 H          18.5299   10.0352   11.9163 H       1  UNL1        0.0660
     30 C          18.9230    9.2700   13.9750 C.ar    1  UNL1        0.1662
     31 C          19.8490   10.2670   14.5820 C.3     1  UNL1        0.4360
     32 F          21.0600   10.2580   14.0890 F       1  UNL1       -0.1644
     33 F          19.9160   10.2130   15.9080 F       1  UNL1       -0.1644
     34 F          19.3800   11.4890   14.3610 F       1  UNL1       -0.1644
     35 N          18.5310    8.2110   14.6570 N.ar    1  UNL1       -0.1618
     36 N          15.8130    1.4840   16.0220 N.3     1  UNL1       -0.1053
     37 H          16.7790    1.1732   16.1982 H       1  UNL1        0.1694
     38 O          13.8900    2.9120   16.5270 O.2     1  UNL1       -0.1519
     39 O          15.8140    3.0120   17.9850 O.2     1  UNL1       -0.1519
@<TRIPOS>BOND
     1     1     2    1
     2     1    36    1
     3     1    38    2
     4     1    39    2
     5     2     3   ar
     6     2    10   ar
     7     3     5   ar
     8     3     4    1
     9     5     7   ar
    10     5     6    1
    11     7     8   ar
    12     7    12    1
    13     8    10   ar
    14     8     9    1
    15    10    11    1
    16    12    13   ar
    17    12    35   ar
    18    13    14    1
    19    13    28   ar
    20    14    15   ar
    21    14    26   ar
    22    15    17   ar
    23    15    16    1
    24    17    19   ar
    25    17    18    1
    26    19    20    1
    27    19    24   ar
    28    20    21    1
    29    20    22    1
    30    20    23    1
    31    24    26   ar
    32    24    25    1
    33    26    27    1
    34    28    30   ar
    35    28    29    1
    36    30    31    1
    37    30    35   ar
    38    31    32    1
    39    31    33    1
    40    31    34    1
    41    36    37    1
