@<TRIPOS>MOLECULE
LIGAND
 38 40 0 0 0
SMALL
GASTEIGER

@<TRIPOS>ATOM
      1 N          16.9100   19.4810   33.7500 N.2     1  UNL1       -0.2884
      2 H          16.6528   18.5558   33.3775 H       1  UNL1        0.3009
      3 H          16.1767   20.1716   33.9653 H       1  UNL1        0.3009
      4 C          18.2190   19.7910   33.9580 C.2     1  UNL1        0.2662
      5 N          18.6640   20.9890   34.4480 N.pl3   1  UNL1       -0.2497
      6 H          19.6731   21.1493   34.5781 H       1  UNL1        0.2883
      7 H          17.9898   21.7303   34.6865 H       1  UNL1        0.2883
      8 C          19.1860   18.7150   33.5770 C.ar    1  UNL1        0.0614
      9 C          18.9160   17.6690   32.6200 C.ar    1  UNL1       -0.0464
     10 H          17.9551   17.7144   32.1075 H       1  UNL1        0.0626
     11 C          19.7700   16.5850   32.2740 C.ar    1  UNL1       -0.0532
     12 H          19.4656   15.8225   31.5571 H       1  UNL1        0.0624
     13 C          21.0350   16.5470   32.9080 C.ar    1  UNL1       -0.0171
     14 C          21.9800   15.5860   32.5700 C.ar    1  UNL1       -0.0419
     15 H          21.6923   14.8081   31.8627 H       1  UNL1        0.0631
     16 C          23.3190   15.5600   33.1020 C.ar    1  UNL1        0.0376
     17 C          23.5420   16.6870   34.0250 C.ar    1  UNL1       -0.0490
     18 H          24.5328   16.7436   34.4758 H       1  UNL1        0.0625
     19 C          22.6570   17.6790   34.3910 C.ar    1  UNL1       -0.0533
     20 H          22.9335   18.4791   35.0776 H       1  UNL1        0.0624
     21 C          21.4130   17.5940   33.8380 C.ar    1  UNL1       -0.0170
     22 C          20.5120   18.5880   34.1190 C.ar    1  UNL1       -0.0393
     23 H          20.8317   19.3573   34.8219 H       1  UNL1        0.0632
     24 C          24.3420   14.5750   32.7800 C.2     1  UNL1        0.2483
     25 O          25.1790   14.3330   33.6420 O.2     1  UNL1       -0.2699
     26 N          24.3970   14.1850   31.4660 N.am    1  UNL1       -0.2815
     27 H          23.6853   14.5403   30.8117 H       1  UNL1        0.1551
     28 C          25.3720   13.3340   30.9910 C.ar    1  UNL1        0.0337
     29 C          25.8210   13.7000   29.7180 C.ar    1  UNL1       -0.0405
     30 H          25.4485   14.6086   29.2449 H       1  UNL1        0.0636
     31 C          26.7490   12.8940   29.0580 C.ar    1  UNL1       -0.0600
     32 H          27.0720   13.1279   28.0436 H       1  UNL1        0.0618
     33 C          27.2650   11.7530   29.7480 C.ar    1  UNL1       -0.0616
     34 H          27.9761   11.1093   29.2302 H       1  UNL1        0.0618
     35 C          26.9000   11.4270   31.0520 C.ar    1  UNL1       -0.0600
     36 H          27.3434   10.5722   31.5628 H       1  UNL1        0.0618
     37 C          25.9430   12.2340   31.6880 C.ar    1  UNL1       -0.0405
     38 H          25.6389   12.0180   32.7122 H       1  UNL1        0.0636
@<TRIPOS>BOND
     1     1     4    2
     2     1     2    1
     3     1     3    1
     4     4     5    1
     5     4     8    1
     6     5     6    1
     7     5     7    1
     8     8     9   ar
     9     8    22   ar
    10     9    11   ar
    11     9    10    1
    12    11    13   ar
    13    11    12    1
    14    13    14   ar
    15    13    21   ar
    16    14    16   ar
    17    14    15    1
    18    16    17   ar
    19    16    24    1
    20    17    19   ar
    21    17    18    1
    22    19    21   ar
    23    19    20    1
    24    21    22   ar
    25    22    23    1
    26    24    25    2
    27    24    26   am
    28    26    28    1
    29    26    27    1
    30    28    29   ar
    31    28    37   ar
    32    29    31   ar
    33    29    30    1
    34    31    33   ar
    35    31    32    1
    36    33    35   ar
    37    33    34    1
    38    35    37   ar
    39    35    36    1
    40    37    38    1
