@<TRIPOS>MOLECULE
LIGAND
 54 58 0 0 0
SMALL
GASTEIGER

@<TRIPOS>ATOM
      1 O          16.6950  -12.8160   22.7290 O.2     1  UNL1       -0.2748
      2 C          17.4090  -12.5450   21.7800 C.2     1  UNL1        0.2278
      3 N          18.5310  -13.3290   21.4300 N.am    1  UNL1       -0.2372
      4 C          18.8670  -14.5430   22.1730 C.3     1  UNL1        0.0474
      5 H          19.3560  -15.2473   21.4826 H       1  UNL1        0.0519
      6 H          17.9461  -15.0346   22.5208 H       1  UNL1        0.0519
      7 C          19.7880  -14.2110   23.3150 C.ar    1  UNL1       -0.0294
      8 C          19.2510  -14.0800   24.6100 C.ar    1  UNL1       -0.0543
      9 H          18.1796  -14.1915   24.7765 H       1  UNL1        0.0622
     10 C          20.1060  -13.8060   25.6770 C.ar    1  UNL1       -0.0261
     11 H          19.7191  -13.7026   26.6908 H       1  UNL1        0.0646
     12 C          21.4750  -13.6670   25.4130 C.ar    1  UNL1        0.1234
     13 F          22.2470  -13.4240   26.4870 F       1  UNL1       -0.2055
     14 C          22.0580  -13.7740   24.1420 C.ar    1  UNL1       -0.0261
     15 H          23.1299  -13.6504   23.9878 H       1  UNL1        0.0646
     16 C          21.1740  -14.0520   23.0690 C.ar    1  UNL1       -0.0543
     17 H          21.5611  -14.1434   22.0541 H       1  UNL1        0.0622
     18 C          19.0640  -12.9060   20.1780 C.2     1  UNL1        0.2275
     19 O          20.0420  -13.3920   19.6320 O.2     1  UNL1       -0.2748
     20 C          18.2450  -11.8120   19.6630 C.3     1  UNL1        0.0645
     21 H          18.9075  -10.9953   19.3437 H       1  UNL1        0.0418
     22 C          17.2170  -12.1980   18.6000 C.3     1  UNL1        0.0229
     23 H          17.4859  -13.2534   18.3504 H       1  UNL1        0.0470
     24 N          15.7990  -12.4400   19.1400 N.3     1  UNL1       -0.2910
     25 C          14.9690  -11.9970   17.9830 C.3     1  UNL1       -0.0002
     26 H          14.6679  -10.9366   18.0315 H       1  UNL1        0.0427
     27 H          14.0385  -12.5824   17.9338 H       1  UNL1        0.0427
     28 C          15.8910  -12.1930   16.7360 C.3     1  UNL1       -0.0387
     29 H          15.4933  -11.6888   15.8417 H       1  UNL1        0.0278
     30 H          15.9611  -13.2686   16.4893 H       1  UNL1        0.0278
     31 C          17.2510  -11.6720   17.2230 C.3     1  UNL1       -0.0354
     32 H          18.1256  -12.0173   16.6482 H       1  UNL1        0.0281
     33 H          17.2471  -10.5688   17.1741 H       1  UNL1        0.0281
     34 C          15.8630  -11.3370   20.1940 C.3     1  UNL1        0.0477
     35 H          15.9304  -10.3661   19.6542 H       1  UNL1        0.0520
     36 C          14.6700  -11.2040   21.0920 C.ar    1  UNL1       -0.0295
     37 C          13.9280  -12.3500   21.3610 C.ar    1  UNL1       -0.0562
     38 H          14.1925  -13.2944   20.8853 H       1  UNL1        0.0621
     39 C          12.8510  -12.2910   22.2350 C.ar    1  UNL1       -0.0467
     40 H          12.2664  -13.1840   22.4561 H       1  UNL1        0.0626
     41 C          12.5240  -11.0440   22.8370 C.ar    1  UNL1        0.0608
     42 C          13.2700   -9.8900   22.5730 C.ar    1  UNL1       -0.0467
     43 H          13.0070   -8.9445   23.0473 H       1  UNL1        0.0626
     44 C          14.3560   -9.9610   21.6950 C.ar    1  UNL1       -0.0562
     45 H          14.9515   -9.0742   21.4780 H       1  UNL1        0.0621
     46 C          11.3830  -11.0010   23.7370 C.2     1  UNL1        0.2662
     47 N          10.5520  -12.0640   23.8870 N.2     1  UNL1       -0.2884
     48 H           9.7512  -12.0047   24.5321 H       1  UNL1        0.3009
     49 H          10.7222  -12.9298   23.3556 H       1  UNL1        0.3009
     50 N          11.0790   -9.9100   24.4850 N.pl3   1  UNL1       -0.2497
     51 H          10.2599   -9.9256   25.1092 H       1  UNL1        0.2883
     52 H          11.6675   -9.0666   24.4285 H       1  UNL1        0.2883
     53 C          17.2470  -11.4430   20.8070 C.3     1  UNL1        0.0683
     54 H          17.5100  -10.5199   21.3507 H       1  UNL1        0.0421
@<TRIPOS>BOND
     1     1     2    2
     2     2     3   am
     3     2    53    1
     4     3     4    1
     5     3    18   am
     6     4     7    1
     7     4     5    1
     8     4     6    1
     9     7     8   ar
    10     7    16   ar
    11     8    10   ar
    12     8     9    1
    13    10    12   ar
    14    10    11    1
    15    12    13    1
    16    12    14   ar
    17    14    16   ar
    18    14    15    1
    19    16    17    1
    20    18    19    2
    21    18    20    1
    22    20    22    1
    23    20    53    1
    24    20    21    1
    25    22    24    1
    26    22    31    1
    27    22    23    1
    28    24    25    1
    29    24    34    1
    30    25    28    1
    31    25    26    1
    32    25    27    1
    33    28    31    1
    34    28    29    1
    35    28    30    1
    36    31    32    1
    37    31    33    1
    38    34    36    1
    39    34    53    1
    40    34    35    1
    41    36    37   ar
    42    36    44   ar
    43    37    39   ar
    44    37    38    1
    45    39    41   ar
    46    39    40    1
    47    41    42   ar
    48    41    46    1
    49    42    44   ar
    50    42    43    1
    51    44    45    1
    52    46    47    2
    53    46    50    1
    54    47    48    1
    55    47    49    1
    56    50    51    1
    57    50    52    1
    58    53    54    1
