@<TRIPOS>MOLECULE
LIGAND
 27 28 0 0 0
SMALL
GASTEIGER

@<TRIPOS>ATOM
      1 N          14.5300   10.9590   39.3960 N.ar    1  UNL1       -0.2630
      2 C          14.8480   11.5340   40.5560 C.ar    1  UNL1        0.0292
      3 H          14.1780   11.3955   41.4045 H       1  UNL1        0.0832
      4 C          15.9830   12.2950   40.7340 C.ar    1  UNL1       -0.0428
      5 C          16.8250   12.4490   39.6380 C.ar    1  UNL1       -0.0573
      6 H          17.7275   13.0535   39.7283 H       1  UNL1        0.0621
      7 C          16.5230   11.8390   38.4340 C.ar    1  UNL1       -0.0434
      8 H          17.1873   11.9334   37.5750 H       1  UNL1        0.0633
      9 C          15.3520   11.1050   38.3520 C.ar    1  UNL1        0.0276
     10 H          15.0919   10.6309   37.4056 H       1  UNL1        0.0829
     11 N          17.6410   13.4010   42.2340 N.3     1  UNL1        0.3824
     12 H          17.8868   13.9141   41.3988 H       1  UNL1       -0.0814
     13 C          16.2700   12.9520   42.0610 C.3     1  UNL1       -0.0509
     14 H          16.0220   12.2711   42.8903 H       1  UNL1        0.0143
     15 C          15.4670   14.2580   42.2210 C.3     1  UNL1       -0.0629
     16 H          14.4244   14.0727   42.5183 H       1  UNL1        0.0252
     17 H          15.4207   14.7917   41.2543 H       1  UNL1        0.0252
     18 C          16.2810   15.0920   43.2200 C.3     1  UNL1       -0.0692
     19 C          17.6370   14.3510   43.3350 C.3     1  UNL1       -0.0902
     20 H          18.5003   14.9922   43.1572 H       1  UNL1        0.0059
     21 H          17.7317   13.8148   44.2899 H       1  UNL1        0.0059
     22 C          18.6527   12.3117   42.3850 C.3     1  UNL1       -0.1024
     23 H          19.6192   12.7969   42.4818 H       1  UNL1        0.0024
     24 H          18.4263   11.7308   43.2869 H       1  UNL1        0.0024
     25 H          18.6392   11.6592   41.5061 H       1  UNL1        0.0024
     26 H          15.7862   15.1586   44.2029 H       1  UNL1        0.0247
     27 H          16.3968   16.1324   42.8707 H       1  UNL1        0.0247
@<TRIPOS>BOND
     1     1     2   ar
     2     1     9   ar
     3     2     4   ar
     4     2     3    1
     5     4     5   ar
     6     4    13    1
     7     5     7   ar
     8     5     6    1
     9     7     9   ar
    10     7     8    1
    11     9    10    1
    12    11    13    1
    13    11    19    1
    14    11    22    1
    15    11    12    1
    16    13    15    1
    17    13    14    1
    18    15    18    1
    19    15    16    1
    20    15    17    1
    21    18    19    1
    22    19    20    1
    23    19    21    1
    24    22    23    1
    25    22    24    1
    26    22    25    1
    27    18    26    1
    28    18    27    1
