@<TRIPOS>MOLECULE
LIGAND
 29 30 0 0 0
SMALL
GASTEIGER

@<TRIPOS>ATOM
      1 O          69.9710   38.0950   20.6110 O.3     1  UNL1       -0.3924
      2 H          70.4082   39.0254   20.6749 H       1  UNL1        0.2095
      3 C          70.2680   37.3460   21.7920 C.3     1  UNL1        0.0731
      4 H          69.4397   37.4284   22.5173 H       1  UNL1        0.0584
      5 H          71.1804   37.7431   22.2680 H       1  UNL1        0.0584
      6 C          70.4670   35.8600   21.3710 C.3     1  UNL1        0.1159
      7 H          70.8302   35.2883   22.2390 H       1  UNL1        0.0648
      8 O          69.1490   35.3280   21.0460 O.3     1  UNL1       -0.3422
      9 C          69.2100   34.4730   19.9010 C.3     1  UNL1        0.2055
     10 H          69.4652   33.4626   20.2622 H       1  UNL1        0.0902
     11 N          67.9220   34.4220   19.1610 N.ar    1  UNL1       -0.2670
     12 C          67.1460   35.4720   18.9970 C.ar    1  UNL1        0.0153
     13 H          67.5409   36.4650   19.2117 H       1  UNL1        0.0812
     14 C          65.9110   35.3510   18.5820 C.ar    1  UNL1       -0.0056
     15 H          65.2535   36.2203   18.5884 H       1  UNL1        0.0666
     16 C          65.4560   34.2010   18.1600 C.ar    1  UNL1        0.1230
     17 N          66.2500   33.1260   18.1940 N.ar    1  UNL1       -0.1783
     18 C          67.4980   33.2220   18.6960 C.ar    1  UNL1        0.3523
     19 O          68.2730   32.1280   18.7270 O.2     1  UNL1       -0.2444
     20 N          64.2250   34.0320   17.6390 N.pl3   1  UNL1       -0.3430
     21 H          63.9231   33.0993   17.3232 H       1  UNL1        0.1437
     22 H          63.5859   34.8355   17.5567 H       1  UNL1        0.1437
     23 C          70.3860   35.0840   19.0980 C.3     1  UNL1        0.3207
     24 F          69.9430   36.0620   18.3370 F       1  UNL1       -0.1978
     25 F          70.8690   34.2060   18.2630 F       1  UNL1       -0.1978
     26 C          71.3680   35.6020   20.1690 C.3     1  UNL1        0.1508
     27 H          71.9467   36.4664   19.8207 H       1  UNL1        0.0682
     28 O          72.4070   34.5860   20.4110 O.3     1  UNL1       -0.3830
     29 H          71.9799   33.7530   20.8407 H       1  UNL1        0.2101
@<TRIPOS>BOND
     1     1     3    1
     2     1     2    1
     3     3     6    1
     4     3     4    1
     5     3     5    1
     6     6     8    1
     7     6    26    1
     8     6     7    1
     9     8     9    1
    10     9    11    1
    11     9    23    1
    12     9    10    1
    13    11    12   ar
    14    11    18   ar
    15    12    14   ar
    16    12    13    1
    17    14    16   ar
    18    14    15    1
    19    16    17   ar
    20    16    20    1
    21    17    18   ar
    22    18    19    2
    23    20    21    1
    24    20    22    1
    25    23    24    1
    26    23    25    1
    27    23    26    1
    28    26    28    1
    29    26    27    1
    30    28    29    1
