@<TRIPOS>MOLECULE
LIGAND
 64 68 0 0 0
SMALL
GASTEIGER

@<TRIPOS>ATOM
      1 N          22.9290   10.6810   31.0540 N.ar    1  UNL1       -0.3256
      2 C          23.0120   12.0320   30.9590 C.ar    1  UNL1        0.1138
      3 N          22.0990   12.6890   31.7610 N.ar    1  UNL1       -0.2313
      4 C          21.2860   11.7150   32.5060 C.ar    1  UNL1        0.0986
      5 C          21.8180   10.3910   32.0700 C.ar    1  UNL1        0.0952
      6 C          23.8100    9.7730   30.2840 C.3     1  UNL1        0.0248
      7 H          24.1284   10.3179   29.3830 H       1  UNL1        0.0492
      8 H          23.2515    8.9065   29.9013 H       1  UNL1        0.0492
      9 C          25.0520    9.3460   31.0580 C.3     1  UNL1       -0.0378
     10 H          24.8569    8.4523   31.6729 H       1  UNL1        0.0280
     11 H          25.3250   10.1381   31.7809 H       1  UNL1        0.0280
     12 C          26.2730    9.1030   30.1750 C.3     1  UNL1       -0.0637
     13 H          27.1302    8.7525   30.7739 H       1  UNL1        0.0230
     14 H          26.0821    8.3458   29.3984 H       1  UNL1        0.0230
     15 H          26.5835   10.0290   29.6643 H       1  UNL1        0.0230
     16 C          23.7550   12.8320   30.2590 C.3     1  UNL1        0.0140
     17 H          24.4564   12.2985   29.5873 H       1  UNL1        0.0378
     18 C          22.9930   13.7550   29.2460 C.3     1  UNL1       -0.0584
     19 H          22.2379   14.3736   29.7645 H       1  UNL1        0.0254
     20 H          22.4316   13.1487   28.5159 H       1  UNL1        0.0254
     21 C          23.9490   14.6900   28.4210 C.3     1  UNL1       -0.0903
     22 H          23.3728   15.3979   27.8092 H       1  UNL1        0.0059
     23 H          24.5789   14.0832   27.7542 H       1  UNL1        0.0059
     24 N          24.8670   15.4780   29.3040 N.3     1  UNL1        0.3779
     25 H          24.2955   16.0917   29.8686 H       1  UNL1       -0.0822
     26 C          25.6460   14.6180   30.2170 C.3     1  UNL1       -0.0903
     27 H          26.2700   15.2639   30.8509 H       1  UNL1        0.0059
     28 H          26.3119   13.9958   29.6007 H       1  UNL1        0.0059
     29 C          24.7420   13.6940   31.1040 C.3     1  UNL1       -0.0584
     30 H          25.4234   13.0493   31.6840 H       1  UNL1        0.0254
     31 H          24.2012   14.3064   31.8485 H       1  UNL1        0.0254
     32 C          25.7710   16.3300   28.4900 C.3     1  UNL1       -0.1032
     33 H          26.3988   16.9346   29.1553 H       1  UNL1        0.0023
     34 H          26.4025   15.6861   27.8658 H       1  UNL1        0.0023
     35 H          25.1712   16.9920   27.8542 H       1  UNL1        0.0023
     36 C          20.2330   12.1130   33.4840 C.ar    1  UNL1        0.0040
     37 C          21.4780    8.9140   32.2260 C.ar    1  UNL1        0.0945
     38 C          20.1490   11.4870   34.7500 C.ar    1  UNL1       -0.0327
     39 H          20.8771   10.7180   35.0080 H       1  UNL1        0.0639
     40 C          19.1640   11.8230   35.6780 C.ar    1  UNL1        0.0599
     41 C          18.1870   12.8000   35.3520 C.ar    1  UNL1        0.0593
     42 C          18.2510   13.4610   34.0840 C.ar    1  UNL1       -0.0413
     43 H          17.5234   14.2325   33.8319 H       1  UNL1        0.0633
     44 C          19.2830   13.1020   33.1400 C.ar    1  UNL1       -0.0510
     45 H          19.3294   13.5911   32.1670 H       1  UNL1        0.0625
     46 CL         19.2050   10.9730   37.1650 Cl      1  UNL1       -0.0820
     47 CL         16.9170   13.2460   36.4370 Cl      1  UNL1       -0.0820
     48 C          20.2400    8.5980   32.8480 C.ar    1  UNL1       -0.0159
     49 H          19.5452    9.3713   33.1757 H       1  UNL1        0.0655
     50 C          19.9620    7.2220   33.0170 C.ar    1  UNL1        0.0333
     51 H          19.0162    6.9259   33.4708 H       1  UNL1        0.0831
     52 N          20.8310    6.2650   32.6340 N.ar    1  UNL1       -0.2229
     53 C          21.9780    6.6790   32.0780 C.ar    1  UNL1        0.2159
     54 N          22.3180    7.9500   31.8670 N.ar    1  UNL1       -0.2129
     55 N          22.9070    5.7760   31.6830 N.pl3   1  UNL1       -0.3106
     56 H          23.5385    5.3690   32.3876 H       1  UNL1        0.1492
     57 C          23.0400    5.3650   30.3010 C.3     1  UNL1        0.0234
     58 H          22.2756    4.6987   29.8852 H       1  UNL1        0.0498
     59 C          24.3720    4.7200   30.6710 C.3     1  UNL1       -0.0328
     60 H          24.6300    3.7164   30.3210 H       1  UNL1        0.0284
     61 H          24.9696    5.0005   31.5536 H       1  UNL1        0.0284
     62 C          24.2570    5.7910   29.6330 C.3     1  UNL1       -0.0328
     63 H          24.6108    6.7936   29.8764 H       1  UNL1        0.0284
     64 H          24.3863    5.5522   28.5745 H       1  UNL1        0.0284
@<TRIPOS>BOND
     1     1     2   ar
     2     1     5   ar
     3     1     6    1
     4     2     3   ar
     5     2    16    1
     6     3     4   ar
     7     4     5   ar
     8     4    36    1
     9     5    37    1
    10     6     9    1
    11     6     7    1
    12     6     8    1
    13     9    12    1
    14     9    10    1
    15     9    11    1
    16    12    13    1
    17    12    14    1
    18    12    15    1
    19    16    18    1
    20    16    29    1
    21    16    17    1
    22    18    21    1
    23    18    19    1
    24    18    20    1
    25    21    24    1
    26    21    22    1
    27    21    23    1
    28    24    26    1
    29    24    32    1
    30    24    25    1
    31    26    29    1
    32    26    27    1
    33    26    28    1
    34    29    30    1
    35    29    31    1
    36    32    33    1
    37    32    34    1
    38    32    35    1
    39    36    38   ar
    40    36    44   ar
    41    37    48   ar
    42    37    54   ar
    43    38    40   ar
    44    38    39    1
    45    40    41   ar
    46    40    46    1
    47    41    42   ar
    48    41    47    1
    49    42    44   ar
    50    42    43    1
    51    44    45    1
    52    48    50   ar
    53    48    49    1
    54    50    52   ar
    55    50    51    1
    56    52    53   ar
    57    53    54   ar
    58    53    55    1
    59    55    57    1
    60    55    56    1
    61    57    59    1
    62    57    62    1
    63    57    58    1
    64    59    62    1
    65    59    60    1
    66    59    61    1
    67    62    63    1
    68    62    64    1
