@<TRIPOS>MOLECULE
LIGAND
 37 39 0 0 0
SMALL
GASTEIGER

@<TRIPOS>ATOM
      1 C          35.7510   26.4540   66.2660 C.3     1  UNL1       -0.0182
      2 H          36.5573   27.1123   66.6240 H       1  UNL1        0.0340
      3 H          35.3104   25.9476   67.1368 H       1  UNL1        0.0340
      4 H          36.1931   25.7112   65.5863 H       1  UNL1        0.0340
      5 S          34.5750   27.5210   65.4310 S.3     1  UNL1       -0.1656
      6 C          33.3440   26.3020   64.8930 C.3     1  UNL1       -0.0166
      7 H          33.5367   25.3385   65.3994 H       1  UNL1        0.0361
      8 H          33.5594   26.1338   63.8217 H       1  UNL1        0.0361
      9 C          31.9070   26.7610   65.1170 C.3     1  UNL1       -0.0418
     10 H          31.8413   27.8278   64.8468 H       1  UNL1        0.0123
     11 N          31.0410   26.0300   64.1980 N.3     1  UNL1        0.3895
     12 H          31.5402   25.7636   63.3547 H       1  UNL1       -0.0844
     13 H          30.3248   26.6661   63.8646 H       1  UNL1       -0.0844
     14 C          30.6020   25.1360   66.3640 C.3     1  UNL1        0.0713
     15 H          31.1351   24.3310   66.8735 H       1  UNL1        0.0605
     16 O          29.3200   25.1720   67.0690 O.3     1  UNL1       -0.3906
     17 H          29.0427   26.1511   67.2285 H       1  UNL1        0.2098
     18 C          31.3990   26.5060   66.5400 C.3     1  UNL1        0.0683
     19 H          32.2146   26.4470   67.2800 H       1  UNL1        0.0602
     20 O          30.4910   27.5980   66.9450 O.3     1  UNL1       -0.3909
     21 H          30.9975   28.4944   66.9174 H       1  UNL1        0.2098
     22 C          30.3940   24.8870   64.8300 C.3     1  UNL1       -0.0218
     23 H          29.3192   24.9012   64.5827 H       1  UNL1        0.0165
     24 C          31.0360   23.5960   64.2260 C.ar    1  UNL1       -0.0153
     25 C          30.9900   23.2520   62.8750 C.ar    1  UNL1        0.0061
     26 H          30.4910   23.8750   62.1327 H       1  UNL1        0.0810
     27 N          31.5900   22.1240   62.5570 N.ar    1  UNL1       -0.3550
     28 H          31.6676   21.6938   61.6244 H       1  UNL1        0.1655
     29 C          32.0960   21.6420   63.7600 C.ar    1  UNL1        0.1303
     30 C          32.8500   20.4330   64.0420 C.ar    1  UNL1        0.2753
     31 O          33.1940   19.5680   63.2270 O.2     1  UNL1       -0.2656
     32 N          33.2040   20.2720   65.4160 N.ar    1  UNL1       -0.3117
     33 H          33.7402   19.4325   65.6779 H       1  UNL1        0.1698
     34 C          32.8690   21.1860   66.4420 C.ar    1  UNL1        0.0967
     35 H          33.1866   20.9791   67.4640 H       1  UNL1        0.1028
     36 N          32.1460   22.3390   66.1780 N.ar    1  UNL1       -0.2354
     37 C          31.7810   22.5230   64.8190 C.ar    1  UNL1        0.0971
@<TRIPOS>BOND
     1     1     5    1
     2     1     2    1
     3     1     3    1
     4     1     4    1
     5     5     6    1
     6     6     9    1
     7     6     7    1
     8     6     8    1
     9     9    11    1
    10     9    18    1
    11     9    10    1
    12    11    22    1
    13    11    12    1
    14    11    13    1
    15    14    16    1
    16    14    18    1
    17    14    22    1
    18    14    15    1
    19    16    17    1
    20    18    20    1
    21    18    19    1
    22    20    21    1
    23    22    24    1
    24    22    23    1
    25    24    25   ar
    26    24    37   ar
    27    25    27   ar
    28    25    26    1
    29    27    29   ar
    30    27    28    1
    31    29    30   ar
    32    29    37   ar
    33    30    31    2
    34    30    32   ar
    35    32    34   ar
    36    32    33    1
    37    34    36   ar
    38    34    35    1
    39    36    37   ar
