@<TRIPOS>MOLECULE
LIGAND
 32 35 0 0 0
SMALL
GASTEIGER

@<TRIPOS>ATOM
      1 C          40.3060    3.9180   35.3810 C.ar    1  UNL1        0.0265
      2 C          39.6890    5.2740   35.2240 C.2     1  UNL1        0.1331
      3 C          40.8210    3.8770   36.6990 C.ar    1  UNL1        0.0408
      4 N          40.5960    5.0550   37.3470 N.pl3   1  UNL1       -0.3116
      5 H          40.8845    5.2385   38.3186 H       1  UNL1        0.1522
      6 C          41.4700    2.7350   37.2090 C.ar    1  UNL1       -0.0399
      7 H          41.8522    2.7194   38.2297 H       1  UNL1        0.0636
      8 C          41.6140    1.6060   36.3620 C.ar    1  UNL1       -0.0600
      9 H          42.1158    0.7109   36.7294 H       1  UNL1        0.0618
     10 C          41.1020    1.6400   35.0270 C.ar    1  UNL1       -0.0610
     11 H          41.2189    0.7677   34.3840 H       1  UNL1        0.0618
     12 C          40.4370    2.8060   34.5230 C.ar    1  UNL1       -0.0506
     13 H          40.0442    2.8324   33.5066 H       1  UNL1        0.0625
     14 C          39.9390    5.9730   36.5560 C.2     1  UNL1        0.0738
     15 C          39.5920    7.2340   36.9340 C.2     1  UNL1        0.0692
     16 C          40.1170    7.7360   38.2760 C.2     1  UNL1        0.2508
     17 N          39.5880    9.0090   38.4350 N.am    1  UNL1       -0.2809
     18 H          39.7608    9.6096   39.2537 H       1  UNL1        0.1552
     19 C          38.7980    9.3720   37.3550 C.ar    1  UNL1        0.0416
     20 C          38.7520    8.3330   36.3870 C.ar    1  UNL1        0.0102
     21 C          38.1100   10.5980   37.2150 C.ar    1  UNL1       -0.0399
     22 H          38.1755   11.3701   37.9816 H       1  UNL1        0.0636
     23 C          37.3330   10.7920   36.0480 C.ar    1  UNL1       -0.0600
     24 H          36.7856   11.7242   35.9083 H       1  UNL1        0.0618
     25 C          37.2640    9.7690   35.0520 C.ar    1  UNL1       -0.0611
     26 H          36.6636    9.9270   34.1561 H       1  UNL1        0.0618
     27 C          37.9780    8.5360   35.2210 C.ar    1  UNL1       -0.0520
     28 H          37.9242    7.7613   34.4561 H       1  UNL1        0.0624
     29 O          40.8470    7.1490   39.0760 O.2     1  UNL1       -0.2698
     30 N          39.0400    5.8050   34.2330 N.2     1  UNL1       -0.0851
     31 O          38.8830    5.0110   33.0960 O.2     1  UNL1       -0.4087
     32 H          38.2920    5.5038   32.4114 H       1  UNL1        0.3278
@<TRIPOS>BOND
     1     1     2    1
     2     1     3   ar
     3     1    12   ar
     4     2    14    1
     5     2    30    2
     6     3     4    1
     7     3     6   ar
     8     4    14    1
     9     4     5    1
    10     6     8   ar
    11     6     7    1
    12     8    10   ar
    13     8     9    1
    14    10    12   ar
    15    10    11    1
    16    12    13    1
    17    14    15    2
    18    15    16    1
    19    15    20    1
    20    16    17   am
    21    16    29    2
    22    17    19    1
    23    17    18    1
    24    19    20   ar
    25    19    21   ar
    26    20    27   ar
    27    21    23   ar
    28    21    22    1
    29    23    25   ar
    30    23    24    1
    31    25    27   ar
    32    25    26    1
    33    27    28    1
    34    30    31    1
    35    31    32    1
