@<TRIPOS>MOLECULE
LIGAND
 30 31 0 0 0
SMALL
GASTEIGER

@<TRIPOS>ATOM
      1 C          68.9350   22.1920  190.6920 C.ar    1  UNL1       -0.0538
      2 H          69.9293   22.5187  190.3876 H       1  UNL1        0.0624
      3 C          68.2400   25.9030  187.0300 C.ar    1  UNL1       -0.0617
      4 H          68.3418   26.6850  186.2776 H       1  UNL1        0.0618
      5 C          67.3810   24.7990  186.7850 C.ar    1  UNL1       -0.0612
      6 H          66.8314   24.7369  185.8457 H       1  UNL1        0.0618
      7 C          67.2340   23.7680  187.7660 C.ar    1  UNL1       -0.0540
      8 H          66.5734   22.9220  187.5762 H       1  UNL1        0.0624
      9 C          67.5220   19.7020  193.2190 C.3     1  UNL1        0.0828
     10 H          68.5104   19.2114  193.2411 H       1  UNL1        0.0461
     11 C          67.3680   20.4630  194.5350 C.2     1  UNL1        0.3630
     12 C          66.4530   18.6280  192.9680 C.3     1  UNL1       -0.0480
     13 H          66.5892   18.1581  191.9815 H       1  UNL1        0.0241
     14 H          66.5095   17.8323  193.7274 H       1  UNL1        0.0241
     15 H          65.4344   19.0452  193.0064 H       1  UNL1        0.0241
     16 C          68.8390   21.2130  191.6910 C.ar    1  UNL1       -0.0572
     17 H          69.7376   20.7947  192.1444 H       1  UNL1        0.0621
     18 C          67.5640   20.7790  192.0990 C.ar    1  UNL1       -0.0338
     19 C          66.3870   21.3340  191.4880 C.ar    1  UNL1       -0.0572
     20 H          65.4030   20.9889  191.8055 H       1  UNL1        0.0621
     21 C          66.4890   22.3310  190.4710 C.ar    1  UNL1       -0.0538
     22 H          65.5897   22.7459  190.0157 H       1  UNL1        0.0624
     23 C          67.8030   22.7880  190.0480 C.ar    1  UNL1       -0.0179
     24 C          67.9560   23.8520  188.9940 C.ar    1  UNL1       -0.0179
     25 C          68.8390   24.9870  189.2370 C.ar    1  UNL1       -0.0540
     26 H          69.3979   25.0638  190.1696 H       1  UNL1        0.0624
     27 C          68.9600   25.9970  188.2330 C.ar    1  UNL1       -0.0612
     28 H          69.6179   26.8494  188.4023 H       1  UNL1        0.0618
     29 O          66.3390   20.9560  194.9100 O.co2   1  UNL1       -0.2457
     30 O          68.4620   20.5310  195.2230 O.co2   1  UNL1       -0.2457
@<TRIPOS>BOND
     1     1    16   ar
     2     1    23   ar
     3     1     2    1
     4     3     5   ar
     5     3    27   ar
     6     3     4    1
     7     5     7   ar
     8     5     6    1
     9     7    24   ar
    10     7     8    1
    11     9    11    1
    12     9    12    1
    13     9    18    1
    14     9    10    1
    15    11    29   ar
    16    11    30   ar
    17    12    13    1
    18    12    14    1
    19    12    15    1
    20    16    18   ar
    21    16    17    1
    22    18    19   ar
    23    19    21   ar
    24    19    20    1
    25    21    23   ar
    26    21    22    1
    27    23    24    1
    28    24    25   ar
    29    25    27   ar
    30    25    26    1
    31    27    28    1
