@<TRIPOS>MOLECULE
LIGAND
 55 56 0 0 0
SMALL
GASTEIGER

@<TRIPOS>ATOM
      1 C          27.8590   41.3560   29.9450 C.3     0  UNK0       -0.0697
      2 H          28.8207   40.8315   30.0564 H       0  UNK0        0.0219
      3 H          27.0755   40.5827   29.9514 H       0  UNK0        0.0219
      4 H          27.8647   41.8425   28.9561 H       0  UNK0        0.0219
      5 C          27.7080   42.3620   31.0920 C.3     0  UNK0       -0.0047
      6 H          27.7606   41.8248   32.0502 H       0  UNK0        0.0181
      7 N          26.4000   42.9990   31.0150 N.3     0  UNK0        0.3859
      8 H          26.2204   43.5824   31.8181 H       0  UNK0       -0.0889
      9 H          26.3954   43.6077   30.2046 H       0  UNK0       -0.0889
     10 H          25.6550   42.3262   30.9433 H       0  UNK0       -0.0889
     11 P          29.0160   43.5020   31.0260 P.3     0  UNK0        0.2245
     12 O          30.2300   42.6500   31.2230 O.3     0  UNK0       -0.1708
     13 O          28.9360   44.3150   29.7670 O.2     0  UNK0       -0.2898
     14 C          28.8610   44.5560   32.3940 C.3     0  UNK0        0.0367
     15 H          28.0060   44.2721   33.0205 H       0  UNK0        0.0372
     16 H          28.6090   45.5429   31.9713 H       0  UNK0        0.0372
     17 C          30.1480   44.7420   33.2110 C.3     0  UNK0        0.0482
     18 H          31.0225   44.7792   32.5415 H       0  UNK0        0.0402
     19 C          30.3750   43.5780   34.1410 C.2     0  UNK0        0.2176
     20 O          31.5010   43.1770   34.3910 O.2     0  UNK0       -0.2755
     21 N          29.3100   42.9860   34.6650 N.am    1  ALA1       -0.3022
     22 H          28.3577   43.2715   34.3957 H       1  ALA1        0.1495
     23 CA         29.5280   41.9220   35.6310 C.3     1  ALA1        0.1218
     24 HA         30.5136   41.4535   35.4936 H       1  ALA1        0.0613
     25 CB         29.4470   42.4720   37.0530 C.3     1  ALA1       -0.0361
     26 HB1        29.6303   41.6689   37.7824 H       1  ALA1        0.0253
     27 HB2        30.2005   43.2574   37.2218 H       1  ALA1        0.0253
     28 HB3        28.4588   42.9112   37.2589 H       1  ALA1        0.0253
     29 C          28.5250   40.8350   35.4610 C.2     1  ALA1        0.3756
     30 O          27.6000   40.9770   34.6580 O.co2   1  ALA1       -0.2443
     31 OXT        28.6470   39.8160   36.1230 O.co2   1  ALA1       -0.2443
     32 C          30.0520   46.0510   34.0090 C.3     0  UNK0       -0.0161
     33 H          29.2031   45.9973   34.7068 H       0  UNK0        0.0321
     34 H          29.8481   46.8733   33.3014 H       0  UNK0        0.0321
     35 C          31.3280   46.3400   34.7470 C.ar    0  UNK0       -0.0466
     36 C          31.3180   46.4890   36.1320 C.ar    0  UNK0       -0.0580
     37 H          30.3790   46.4085   36.6797 H       0  UNK0        0.0620
     38 C          32.5010   46.7400   36.8190 C.ar    0  UNK0       -0.0538
     39 H          32.4817   46.8592   37.9023 H       0  UNK0        0.0624
     40 C          33.7170   46.8410   36.1310 C.ar    0  UNK0       -0.0179
     41 C          33.7170   46.6950   34.7390 C.ar    0  UNK0       -0.0538
     42 H          34.6536   46.7757   34.1873 H       0  UNK0        0.0624
     43 C          32.5330   46.4480   34.0540 C.ar    0  UNK0       -0.0580
     44 H          32.5467   46.3382   32.9696 H       0  UNK0        0.0620
     45 C          34.9700   47.0860   36.8550 C.ar    0  UNK0       -0.0179
     46 C          36.1210   46.3480   36.5520 C.ar    0  UNK0       -0.0540
     47 H          36.0856   45.5894   35.7701 H       0  UNK0        0.0624
     48 C          37.3100   46.5740   37.2400 C.ar    0  UNK0       -0.0612
     49 H          38.1987   45.9913   36.9974 H       0  UNK0        0.0618
     50 C          37.3650   47.5440   38.2380 C.ar    0  UNK0       -0.0617
     51 H          38.2961   47.7230   38.7757 H       0  UNK0        0.0618
     52 C          36.2260   48.2850   38.5470 C.ar    0  UNK0       -0.0612
     53 H          36.2667   49.0454   39.3269 H       0  UNK0        0.0618
     54 C          35.0370   48.0560   37.8620 C.ar    0  UNK0       -0.0540
     55 H          34.1494   48.6373   38.1117 H       0  UNK0        0.0624
@<TRIPOS>BOND
     1     1     5    1
     2     1     2    1
     3     1     3    1
     4     1     4    1
     5     5     7    1
     6     5    11    1
     7     5     6    1
     8     7     8    1
     9     7     9    1
    10     7    10    1
    11    11    12    1
    12    11    13    2
    13    11    14    1
    14    14    17    1
    15    14    15    1
    16    14    16    1
    17    17    19    1
    18    17    32    1
    19    17    18    1
    20    19    20    2
    21    19    21   am
    22    21    23    1
    23    21    22    1
    24    23    25    1
    25    23    29    1
    26    23    24    1
    27    25    26    1
    28    25    27    1
    29    25    28    1
    30    29    30   ar
    31    29    31   ar
    32    32    35    1
    33    32    33    1
    34    32    34    1
    35    35    36   ar
    36    35    43   ar
    37    36    38   ar
    38    36    37    1
    39    38    40   ar
    40    38    39    1
    41    40    41   ar
    42    40    45    1
    43    41    43   ar
    44    41    42    1
    45    43    44    1
    46    45    46   ar
    47    45    54   ar
    48    46    48   ar
    49    46    47    1
    50    48    50   ar
    51    48    49    1
    52    50    52   ar
    53    50    51    1
    54    52    54   ar
    55    52    53    1
    56    54    55    1
