@<TRIPOS>MOLECULE
LIGAND
 51 50 0 0 0
SMALL
GASTEIGER

@<TRIPOS>ATOM
      1 N           9.2380   13.3090   24.5120 N.am    1  UNL1       -0.3032
      2 H           8.9967   14.0330   23.8202 H       1  UNL1        0.1495
      3 C          11.0490   16.6580   24.4840 C.3     1  UNL1       -0.0626
      4 H          11.9018   16.8686   23.8154 H       1  UNL1        0.0232
      5 H          10.3104   16.1168   23.8729 H       1  UNL1        0.0232
      6 H          10.6092   17.6291   24.7675 H       1  UNL1        0.0232
      7 O          11.1370   12.5040   22.5230 O.2     1  UNL1       -0.2738
      8 C           9.3710   13.6010   25.8150 C.2     1  UNL1        0.2196
      9 O           7.7670   18.2020   29.0500 O.3     1  UNL1       -0.4229
     10 C           9.4500   11.9230   24.1200 C.3     1  UNL1        0.1042
     11 H           9.4252   11.2879   25.0164 H       1  UNL1        0.0600
     12 C           8.2890   11.4530   23.2340 C.3     1  UNL1       -0.0108
     13 C           8.1580   12.3860   22.0150 C.3     1  UNL1       -0.0579
     14 H           7.2747   12.1054   21.4138 H       1  UNL1        0.0236
     15 H           8.0198   13.4429   22.2919 H       1  UNL1        0.0236
     16 H           9.0179   12.3235   21.3299 H       1  UNL1        0.0236
     17 C           8.5450   10.0130   22.7590 C.3     1  UNL1       -0.0579
     18 H           7.6994    9.6379   22.1572 H       1  UNL1        0.0236
     19 H           9.4449    9.9385   22.1255 H       1  UNL1        0.0236
     20 H           8.6735    9.3199   23.6070 H       1  UNL1        0.0236
     21 C          10.7830   11.7330   23.4160 C.2     1  UNL1        0.2336
     22 C          12.7670   10.3810   23.2210 C.3     1  UNL1        0.0001
     23 H          12.6097   10.1968   22.1471 H       1  UNL1        0.0426
     24 H          13.4770   11.2157   23.3316 H       1  UNL1        0.0426
     25 H          13.2087    9.4804   23.6709 H       1  UNL1        0.0426
     26 N           7.9160   16.8480   28.8540 N.am    1  UNL1       -0.3090
     27 H           8.2031   16.1753   29.5793 H       1  UNL1        0.1546
     28 C           7.6330   16.5310   27.5810 C.2     1  UNL1        0.0851
     29 O           7.1610   17.3410   26.7870 O.2     1  UNL1       -0.5394
     30 C           7.9410   15.1230   27.1540 C.3     1  UNL1        0.1114
     31 H           8.2407   14.5381   28.0391 H       1  UNL1        0.0670
     32 O           6.7810   14.4760   26.6530 O.3     1  UNL1       -0.3846
     33 H           6.0575   15.1792   26.4457 H       1  UNL1        0.2103
     34 C           9.0900   15.0580   26.1490 C.3     1  UNL1        0.0676
     35 H           8.7550   15.6060   25.2543 H       1  UNL1        0.0424
     36 C          10.3530   15.7170   26.7200 C.3     1  UNL1       -0.0368
     37 H          10.7012   15.1519   27.6026 H       1  UNL1        0.0276
     38 H          10.0840   16.7264   27.0809 H       1  UNL1        0.0276
     39 C          11.4960   15.8800   25.7060 C.3     1  UNL1       -0.0459
     40 H          11.8316   14.8764   25.3801 H       1  UNL1        0.0296
     41 C          12.6810   16.5890   26.3600 C.3     1  UNL1       -0.0626
     42 H          13.0483   16.0398   27.2428 H       1  UNL1        0.0232
     43 H          13.5297   16.6894   25.6630 H       1  UNL1        0.0232
     44 H          12.4002   17.6031   26.6907 H       1  UNL1        0.0232
     45 O           9.6760   12.7950   26.6940 O.2     1  UNL1       -0.2754
     46 C           6.9900   11.5010   24.0580 C.3     1  UNL1       -0.0579
     47 H           6.1267   11.1435   23.4715 H       1  UNL1        0.0236
     48 H           7.0564   10.8682   24.9593 H       1  UNL1        0.0236
     49 H           6.7496   12.5237   24.3943 H       1  UNL1        0.0236
     50 N          11.5000   10.6890   23.8780 N.am    1  UNL1       -0.3168
     51 H          11.1637   10.1249   24.6715 H       1  UNL1        0.1484
@<TRIPOS>BOND
     1     1     8   am
     2     1    10    1
     3     1     2    1
     4     3    39    1
     5     3     4    1
     6     3     5    1
     7     3     6    1
     8     7    21    2
     9     8    34    1
    10     8    45    2
    11     9    26    1
    12    10    12    1
    13    10    21    1
    14    10    11    1
    15    12    13    1
    16    12    17    1
    17    12    46    1
    18    13    14    1
    19    13    15    1
    20    13    16    1
    21    17    18    1
    22    17    19    1
    23    17    20    1
    24    21    50   am
    25    22    50    1
    26    22    23    1
    27    22    24    1
    28    22    25    1
    29    26    28   am
    30    26    27    1
    31    28    29    2
    32    28    30    1
    33    30    32    1
    34    30    34    1
    35    30    31    1
    36    32    33    1
    37    34    36    1
    38    34    35    1
    39    36    39    1
    40    36    37    1
    41    36    38    1
    42    39    41    1
    43    39    40    1
    44    41    42    1
    45    41    43    1
    46    41    44    1
    47    46    47    1
    48    46    48    1
    49    46    49    1
    50    50    51    1
