@<TRIPOS>MOLECULE
LIGAND
 45 45 0 0 0
SMALL
GASTEIGER

@<TRIPOS>ATOM
      1 C          19.5710   33.0360   16.1000 C.3     1  UNL1       -0.0004
      2 H          18.9584   32.1466   16.2228 H       1  UNL1        0.0407
      3 C          18.7930   34.0790   15.2970 C.3     1  UNL1       -0.0536
      4 H          18.5044   33.7049   14.3020 H       1  UNL1        0.0240
      5 H          17.8670   34.3485   15.8302 H       1  UNL1        0.0240
      6 H          19.3841   34.9972   15.1531 H       1  UNL1        0.0240
      7 C          19.9230   33.5930   17.4710 C.3     1  UNL1       -0.0536
      8 H          20.4697   32.8657   18.0906 H       1  UNL1        0.0240
      9 H          20.5482   34.4963   17.3846 H       1  UNL1        0.0240
     10 H          19.0047   33.8681   18.0145 H       1  UNL1        0.0240
     11 S          21.0510   32.5290   15.2710 S.3     1  UNL1       -0.1579
     12 C          20.8100   30.7630   15.0850 C.3     1  UNL1       -0.0046
     13 H          21.5208   30.4645   14.2969 H       1  UNL1        0.0377
     14 H          19.7994   30.5615   14.6889 H       1  UNL1        0.0377
     15 C          21.0560   29.9950   16.3750 C.3     1  UNL1       -0.0258
     16 H          20.4541   30.5010   17.1464 H       1  UNL1        0.0289
     17 H          22.1008   30.1017   16.7196 H       1  UNL1        0.0289
     18 C          20.6120   28.5460   16.2170 C.3     1  UNL1        0.0405
     19 H          19.9054   28.3738   15.3892 H       1  UNL1        0.0489
     20 N          21.9220   27.9620   15.8740 N.3     1  UNL1       -0.3247
     21 H          22.2791   28.4005   15.0131 H       1  UNL1        0.1186
     22 H          22.5851   28.1289   16.6443 H       1  UNL1        0.1186
     23 C          20.0220   27.9640   17.5610 C.3     1  UNL1        0.1473
     24 H          20.6471   28.2987   18.4046 H       1  UNL1        0.0706
     25 O          20.0380   26.5410   17.5620 O.3     1  UNL1       -0.3810
     26 H          19.0710   26.1863   17.5629 H       1  UNL1        0.2105
     27 C          18.5920   28.4240   17.7420 C.2     1  UNL1        0.2592
     28 O          17.6390   27.8590   17.2390 O.2     1  UNL1       -0.2714
     29 N          18.4980   29.6570   18.5610 N.am    1  UNL1       -0.2320
     30 H          19.3579   30.0615   18.9583 H       1  UNL1        0.1729
     31 N          17.2150   30.3150   18.8200 N.am    1  UNL1       -0.2303
     32 H          16.7898   30.2269   19.7540 H       1  UNL1        0.1731
     33 C          16.5600   31.0460   17.8580 C.2     1  UNL1        0.2602
     34 O          17.0760   31.1400   16.7250 O.2     1  UNL1       -0.2687
     35 C          15.2500   31.7070   18.1670 C.ar    1  UNL1        0.0395
     36 C          14.5710   31.7310   19.5060 C.ar    1  UNL1       -0.0495
     37 H          15.0290   31.2400   20.3646 H       1  UNL1        0.0625
     38 C          13.2610   32.4350   19.6490 C.ar    1  UNL1       -0.0597
     39 H          12.7640   32.4582   20.6188 H       1  UNL1        0.0618
     40 C          12.6260   33.1070   18.4770 C.ar    1  UNL1       -0.0433
     41 H          11.6697   33.6193   18.5820 H       1  UNL1        0.0632
     42 C          13.3160   33.0650   17.1750 C.ar    1  UNL1        0.0417
     43 C          14.5890   32.3900   17.0110 C.ar    1  UNL1       -0.0312
     44 H          15.0706   32.3800   16.0332 H       1  UNL1        0.0640
     45 CL         12.6480   33.8090   15.7870 Cl      1  UNL1       -0.0835
@<TRIPOS>BOND
     1     1     3    1
     2     1     7    1
     3     1    11    1
     4     1     2    1
     5     3     4    1
     6     3     5    1
     7     3     6    1
     8     7     8    1
     9     7     9    1
    10     7    10    1
    11    11    12    1
    12    12    15    1
    13    12    13    1
    14    12    14    1
    15    15    18    1
    16    15    16    1
    17    15    17    1
    18    18    20    1
    19    18    23    1
    20    18    19    1
    21    20    21    1
    22    20    22    1
    23    23    25    1
    24    23    27    1
    25    23    24    1
    26    25    26    1
    27    27    28    2
    28    27    29   am
    29    29    31    1
    30    29    30    1
    31    31    33   am
    32    31    32    1
    33    33    34    2
    34    33    35    1
    35    35    36   ar
    36    35    43   ar
    37    36    38   ar
    38    36    37    1
    39    38    40   ar
    40    38    39    1
    41    40    42   ar
    42    40    41    1
    43    42    43   ar
    44    42    45    1
    45    43    44    1
