@<TRIPOS>MOLECULE
LIGAND
 30 31 0 0 0
SMALL
GASTEIGER

@<TRIPOS>ATOM
      1 C           7.1650   28.8000   -3.4190 C.ar    1  UNL1       -0.0612
      2 H           7.6222   27.8871   -3.8005 H       1  UNL1        0.0618
      3 C           7.9960   29.9080   -2.9780 C.ar    1  UNL1       -0.0539
      4 H           9.0794   29.8321   -3.0704 H       1  UNL1        0.0624
      5 C           7.4050   31.1310   -2.4090 C.ar    1  UNL1       -0.0151
      6 C           5.9180   31.1860   -2.3550 C.ar    1  UNL1       -0.0539
      7 H           5.4337   32.0835   -1.9702 H       1  UNL1        0.0624
      8 C           5.1100   30.0940   -2.7940 C.ar    1  UNL1       -0.0612
      9 H           4.0246   30.1490   -2.7107 H       1  UNL1        0.0618
     10 C           5.7330   28.9200   -3.3470 C.ar    1  UNL1       -0.0617
     11 H           5.1086   28.1072   -3.7179 H       1  UNL1        0.0618
     12 C           8.2080   32.2190   -1.9230 C.ar    1  UNL1        0.0173
     13 C           9.4770   31.9350   -1.1840 C.ar    1  UNL1       -0.0510
     14 H           9.7878   30.9012   -1.0331 H       1  UNL1        0.0625
     15 C          10.2930   32.9970   -0.6700 C.ar    1  UNL1       -0.0570
     16 H          11.1559   32.7592   -0.0480 H       1  UNL1        0.0621
     17 C           9.9840   34.3880   -0.9680 C.ar    1  UNL1       -0.0311
     18 C           8.7720   34.6890   -1.6770 C.ar    1  UNL1       -0.0219
     19 H           8.4751   35.7303   -1.8022 H       1  UNL1        0.0649
     20 C           7.9400   33.6530   -2.2260 C.ar    1  UNL1        0.1313
     21 C          10.8540   35.5880   -0.4360 C.3     1  UNL1        0.0829
     22 H          11.8338   35.1669   -0.1601 H       1  UNL1        0.0461
     23 C          10.2100   36.3010    0.8070 C.3     1  UNL1       -0.0480
     24 H          10.8385   37.1418    1.1396 H       1  UNL1        0.0241
     25 H           9.2125   36.6983    0.5613 H       1  UNL1        0.0241
     26 H          10.0938   35.6058    1.6521 H       1  UNL1        0.0241
     27 C          11.1200   36.6260   -1.6110 C.2     1  UNL1        0.3630
     28 O          10.5880   37.7400   -1.5960 O.co2   1  UNL1       -0.2457
     29 O          11.8690   36.2900   -2.5550 O.co2   1  UNL1       -0.2457
     30 F           6.8130   34.0900   -2.9120 F       1  UNL1       -0.2048
@<TRIPOS>BOND
     1     1     3   ar
     2     1    10   ar
     3     1     2    1
     4     3     5   ar
     5     3     4    1
     6     5     6   ar
     7     5    12    1
     8     6     8   ar
     9     6     7    1
    10     8    10   ar
    11     8     9    1
    12    10    11    1
    13    12    13   ar
    14    12    20   ar
    15    13    15   ar
    16    13    14    1
    17    15    17   ar
    18    15    16    1
    19    17    18   ar
    20    17    21    1
    21    18    20   ar
    22    18    19    1
    23    20    30    1
    24    21    23    1
    25    21    27    1
    26    21    22    1
    27    23    24    1
    28    23    25    1
    29    23    26    1
    30    27    28   ar
    31    27    29   ar
