@<TRIPOS>MOLECULE
LIGAND
 70 73 0 0 0
SMALL
GASTEIGER

@<TRIPOS>ATOM
      1 O          17.0960   18.1590   34.7840 O.3     1  UNL1       -0.3914
      2 H          17.6894   18.8282   34.2733 H       1  UNL1        0.2098
      3 O          13.1260   17.4540   36.5350 O.3     1  UNL1       -0.3871
      4 H          12.4931   18.1992   36.8591 H       1  UNL1        0.2102
      5 C          14.1810   18.0370   35.6980 C.3     1  UNL1        0.0822
      6 H          14.9316   18.4877   36.3721 H       1  UNL1        0.0644
      7 C          14.9150   16.9590   34.7840 C.3     1  UNL1        0.0037
      8 H          14.1653   16.4638   34.1459 H       1  UNL1        0.0318
      9 H          15.3595   16.1823   35.4283 H       1  UNL1        0.0318
     10 C          16.0750   17.6280   33.8850 C.3     1  UNL1        0.0619
     11 H          16.5372   16.8579   33.2414 H       1  UNL1        0.0597
     12 C          15.4830   18.8070   32.9870 C.3     1  UNL1       -0.0011
     13 H          14.8123   18.3711   32.2272 H       1  UNL1        0.0338
     14 H          16.3095   19.2883   32.4394 H       1  UNL1        0.0338
     15 C          14.6780   19.8850   33.7870 C.2     1  UNL1       -0.0399
     16 C          14.8630   21.2550   33.6570 C.2     1  UNL1       -0.0582
     17 H          15.6366   21.5325   32.9410 H       1  UNL1        0.0620
     18 C          14.2010   22.4150   34.3140 C.2     1  UNL1       -0.0620
     19 H          13.8424   22.2335   35.3272 H       1  UNL1        0.0617
     20 C          13.9860   23.6240   33.8520 C.2     1  UNL1       -0.0659
     21 C          14.4350   24.1110   32.3790 C.3     1  UNL1       -0.0312
     22 H          14.9699   23.3204   31.8350 H       1  UNL1        0.0310
     23 H          15.1472   24.9402   32.5286 H       1  UNL1        0.0310
     24 C          13.6010   19.1950   34.7730 C.2     1  UNL1       -0.0229
     25 C          13.1870   24.6460   31.4910 C.3     1  UNL1       -0.0488
     26 H          12.6130   23.7759   31.1327 H       1  UNL1        0.0268
     27 H          13.5367   25.2065   30.6088 H       1  UNL1        0.0268
     28 C          12.2310   25.5920   32.3910 C.3     1  UNL1       -0.0465
     29 H          11.3019   25.8028   31.8326 H       1  UNL1        0.0271
     30 H          12.7573   26.5613   32.4598 H       1  UNL1        0.0271
     31 C          11.8140   25.1290   33.9600 C.3     1  UNL1       -0.0222
     32 C          13.2500   24.7290   34.6670 C.3     1  UNL1       -0.0139
     33 H          13.8882   25.6299   34.7027 H       1  UNL1        0.0351
     34 C          12.6990   24.3720   36.2220 C.3     1  UNL1       -0.0457
     35 H          13.4807   24.4934   36.9838 H       1  UNL1        0.0271
     36 H          12.3328   23.3365   36.2722 H       1  UNL1        0.0271
     37 C          11.4750   25.3840   36.3800 C.3     1  UNL1       -0.0486
     38 H          11.5730   26.0490   37.2506 H       1  UNL1        0.0268
     39 H          10.5453   24.8119   36.5198 H       1  UNL1        0.0268
     40 C          11.4180   26.1800   35.0200 C.3     1  UNL1       -0.0291
     41 H          12.1688   26.9923   35.0137 H       1  UNL1        0.0312
     42 C          10.7870   23.7830   33.6420 C.3     1  UNL1       -0.0587
     43 H          10.4535   23.2713   34.5553 H       1  UNL1        0.0235
     44 H           9.9025   24.1312   33.0876 H       1  UNL1        0.0235
     45 H          11.3426   23.0667   33.0189 H       1  UNL1        0.0235
     46 C          12.2570   19.5560   34.8130 C.2     1  UNL1       -0.0928
     47 H          11.8874   20.3531   34.1679 H       1  UNL1        0.0538
     48 H          11.5744   19.0415   35.4893 H       1  UNL1        0.0538
     49 C           9.9380   26.8860   34.7250 C.3     1  UNL1       -0.0223
     50 H           9.9088   27.0970   33.6410 H       1  UNL1        0.0343
     51 C           8.6080   26.1550   35.0790 C.2     1  UNL1       -0.0824
     52 H           8.5563   25.6514   36.0443 H       1  UNL1        0.0573
     53 C           6.1080   25.6110   34.6940 C.3     1  UNL1        0.0762
     54 H           6.2137   25.0822   35.6560 H       1  UNL1        0.0640
     55 C           9.8650   28.2480   35.4480 C.3     1  UNL1       -0.0587
     56 H           8.9404   28.7911   35.1911 H       1  UNL1        0.0235
     57 H           9.8809   28.1069   36.5414 H       1  UNL1        0.0235
     58 H          10.7120   28.9021   35.1840 H       1  UNL1        0.0235
     59 C           5.5480   24.5800   33.5850 C.3     1  UNL1       -0.0113
     60 H           6.3312   23.8587   33.3191 H       1  UNL1        0.0329
     61 C           5.0380   25.5240   32.4720 C.3     1  UNL1       -0.0472
     62 H           5.2753   25.3427   31.4226 H       1  UNL1        0.0269
     63 H           4.6798   26.5271   32.7098 H       1  UNL1        0.0269
     64 C           4.2940   24.3490   33.2310 C.3     1  UNL1       -0.0472
     65 H           3.4649   24.5767   33.9087 H       1  UNL1        0.0269
     66 H           4.0785   23.4325   32.6709 H       1  UNL1        0.0269
     67 O           5.2530   26.7520   34.9730 O.3     1  UNL1       -0.3875
     68 H           5.8132   27.6160   34.9468 H       1  UNL1        0.2102
     69 C           7.5040   26.0930   34.2820 C.2     1  UNL1       -0.0593
     70 H           7.6257   26.4185   33.2489 H       1  UNL1        0.0595
@<TRIPOS>BOND
     1     1    10    1
     2     1     2    1
     3     3     5    1
     4     3     4    1
     5     5     7    1
     6     5    24    1
     7     5     6    1
     8     7    10    1
     9     7     8    1
    10     7     9    1
    11    10    12    1
    12    10    11    1
    13    12    15    1
    14    12    13    1
    15    12    14    1
    16    15    16    2
    17    15    24    1
    18    16    18    1
    19    16    17    1
    20    18    20    2
    21    18    19    1
    22    20    21    1
    23    20    32    1
    24    21    25    1
    25    21    22    1
    26    21    23    1
    27    24    46    2
    28    25    28    1
    29    25    26    1
    30    25    27    1
    31    28    31    1
    32    28    29    1
    33    28    30    1
    34    31    32    1
    35    31    40    1
    36    31    42    1
    37    32    34    1
    38    32    33    1
    39    34    37    1
    40    34    35    1
    41    34    36    1
    42    37    40    1
    43    37    38    1
    44    37    39    1
    45    40    49    1
    46    40    41    1
    47    42    43    1
    48    42    44    1
    49    42    45    1
    50    46    47    1
    51    46    48    1
    52    49    51    1
    53    49    55    1
    54    49    50    1
    55    51    69    2
    56    51    52    1
    57    53    59    1
    58    53    67    1
    59    53    69    1
    60    53    54    1
    61    55    56    1
    62    55    57    1
    63    55    58    1
    64    59    61    1
    65    59    64    1
    66    59    60    1
    67    61    64    1
    68    61    62    1
    69    61    63    1
    70    64    65    1
    71    64    66    1
    72    67    68    1
    73    69    70    1
