@<TRIPOS>MOLECULE
LIGAND
 55 57 0 0 0
SMALL
GASTEIGER

@<TRIPOS>ATOM
      1 C          -0.0220   32.0840    0.4630 C.cat   1  UNL1        0.4210
      2 C          -1.0240   32.5690    2.5090 C.2     1  UNL1        0.3224
      3 C          -1.5800   31.2770    2.5290 C.2     1  UNL1        0.0774
      4 C          -2.2630   30.7710    3.8370 C.3     1  UNL1       -0.0128
      5 H          -2.8778   31.5627    4.2976 H       1  UNL1        0.0320
      6 H          -1.4773   30.5033    4.5672 H       1  UNL1        0.0320
      7 C          -3.1500   29.5290    3.5680 C.3     1  UNL1       -0.0206
      8 H          -4.0474   29.8580    3.0120 H       1  UNL1        0.0319
      9 C          -2.3810   28.4980    2.7070 C.3     1  UNL1       -0.0418
     10 H          -3.0204   27.6217    2.4941 H       1  UNL1        0.0273
     11 H          -1.5451   28.1048    3.3160 H       1  UNL1        0.0273
     12 C          -1.7830   29.0250    1.3530 C.3     1  UNL1        0.0026
     13 H          -2.5686   28.9580    0.5793 H       1  UNL1        0.0341
     14 H          -0.9808   28.3355    1.0370 H       1  UNL1        0.0341
     15 C          -1.3110   30.4230    1.4480 C.2     1  UNL1        0.0884
     16 C          -3.6230   28.9830    4.9610 C.3     1  UNL1        0.0150
     17 H          -4.0854   29.8145    5.5243 H       1  UNL1        0.0466
     18 H          -2.7688   28.6700    5.5712 H       1  UNL1        0.0466
     19 C          -4.2430   26.5590    4.7800 C.ar    1  UNL1        0.0367
     20 C          -5.1380   25.6470    4.2580 C.ar    1  UNL1        0.0050
     21 H          -6.1013   26.0054    3.8950 H       1  UNL1        0.0674
     22 C          -4.8550   24.2840    4.1780 C.ar    1  UNL1        0.1669
     23 C          -7.0110   23.8840    3.0290 C.3     1  UNL1        0.0790
     24 H          -7.5241   22.9903    2.6479 H       1  UNL1        0.0660
     25 H          -7.6748   24.3944    3.7431 H       1  UNL1        0.0660
     26 H          -6.7941   24.5556    2.1853 H       1  UNL1        0.0660
     27 C          -3.6600   23.8460    4.6560 C.ar    1  UNL1        0.2036
     28 C          -2.5570   22.0920    3.4830 C.3     1  UNL1        0.0791
     29 H          -2.1814   21.0819    3.6917 H       1  UNL1        0.0660
     30 H          -3.3019   22.0429    2.6747 H       1  UNL1        0.0660
     31 H          -1.7226   22.7306    3.1575 H       1  UNL1        0.0660
     32 C          -2.7120   24.7340    5.1800 C.ar    1  UNL1        0.1669
     33 C          -0.4570   25.1330    6.0060 C.3     1  UNL1        0.0790
     34 H           0.4114   24.5059    6.2456 H       1  UNL1        0.0660
     35 H          -0.1991   25.8038    5.1750 H       1  UNL1        0.0660
     36 H          -0.7315   25.7167    6.8962 H       1  UNL1        0.0660
     37 C          -3.0110   26.0890    5.2580 C.ar    1  UNL1        0.0050
     38 H          -2.2905   26.7841    5.6892 H       1  UNL1        0.0674
     39 N          -0.4660   30.8230    0.4170 N.2     1  UNL1       -0.2407
     40 H          -0.1964   30.1812   -0.3422 H       1  UNL1        0.2651
     41 N           0.8430   32.3740   -0.5420 N.pl3   1  UNL1       -0.2416
     42 H           1.2534   33.3161   -0.6124 H       1  UNL1        0.2421
     43 H           1.0890   31.6520   -1.2341 H       1  UNL1        0.2421
     44 N          -0.2370   32.9710    1.4960 N.2     1  UNL1        0.0233
     45 N          -1.2830   33.4620    3.4970 N.pl3   1  UNL1       -0.2461
     46 H          -0.8656   34.4030    3.4630 H       1  UNL1        0.2884
     47 H          -1.8971   33.1990    4.2809 H       1  UNL1        0.2884
     48 N          -4.6260   27.9200    4.8320 N.pl3   1  UNL1       -0.3325
     49 O          -5.8220   23.4160    3.6560 O.3     1  UNL1       -0.4913
     50 O          -3.1430   22.5770    4.6930 O.3     1  UNL1       -0.4885
     51 O          -1.5180   24.2160    5.6340 O.3     1  UNL1       -0.4913
     52 C          -6.0510   28.2900    4.7350 C.3     1  UNL1        0.0007
     53 H          -6.1887   29.3274    5.0705 H       1  UNL1        0.0428
     54 H          -6.4269   28.2181    3.7007 H       1  UNL1        0.0428
     55 H          -6.6622   27.6491    5.3870 H       1  UNL1        0.0428
@<TRIPOS>BOND
     1     1    39    2
     2     1    41    1
     3     1    44    1
     4     2     3    1
     5     2    44    2
     6     2    45    1
     7     3     4    1
     8     3    15    2
     9     4     7    1
    10     4     5    1
    11     4     6    1
    12     7     9    1
    13     7    16    1
    14     7     8    1
    15     9    12    1
    16     9    10    1
    17     9    11    1
    18    12    15    1
    19    12    13    1
    20    12    14    1
    21    15    39    1
    22    16    48    1
    23    16    17    1
    24    16    18    1
    25    19    20   ar
    26    19    37   ar
    27    19    48    1
    28    20    22   ar
    29    20    21    1
    30    22    27   ar
    31    22    49    1
    32    23    49    1
    33    23    24    1
    34    23    25    1
    35    23    26    1
    36    27    32   ar
    37    27    50    1
    38    28    50    1
    39    28    29    1
    40    28    30    1
    41    28    31    1
    42    32    37   ar
    43    32    51    1
    44    33    51    1
    45    33    34    1
    46    33    35    1
    47    33    36    1
    48    37    38    1
    49    39    40    1
    50    41    42    1
    51    41    43    1
    52    45    46    1
    53    45    47    1
    54    48    52    1
    55    52    53    1
    56    52    54    1
    57    52    55    1
