@<TRIPOS>MOLECULE
LIGAND
 29 30 0 0 0
SMALL
GASTEIGER

@<TRIPOS>ATOM
      1 C          32.2540   16.9310   30.8630 C.ar    1  UNL1        0.1209
      2 C          31.6740   16.1320   31.9040 C.ar    1  UNL1        0.0213
      3 H          30.5905   16.0794   32.0104 H       1  UNL1        0.0691
      4 C          32.5180   15.4030   32.8040 C.ar    1  UNL1        0.1209
      5 C          33.9470   15.4510   32.6560 C.ar    1  UNL1       -0.0128
      6 H          34.5815   14.8833   33.3366 H       1  UNL1        0.0660
      7 C          34.5420   16.2400   31.6200 C.ar    1  UNL1       -0.0181
      8 C          33.6860   16.9870   30.7170 C.ar    1  UNL1       -0.0128
      9 H          34.1281   17.5924   29.9257 H       1  UNL1        0.0660
     10 C          36.0000   16.2490   31.4920 C.2     1  UNL1       -0.0538
     11 H          36.5916   15.6292   32.1658 H       1  UNL1        0.0624
     12 C          36.6650   17.0320   30.5270 C.2     1  UNL1       -0.0540
     13 H          36.0685   17.6705   29.8754 H       1  UNL1        0.0624
     14 C          38.1080   17.0280   30.3600 C.ar    1  UNL1       -0.0248
     15 C          38.9830   16.2110   31.1730 C.ar    1  UNL1       -0.0511
     16 H          38.5666   15.5736   31.9530 H       1  UNL1        0.0625
     17 C          40.4060   16.2420   30.9490 C.ar    1  UNL1       -0.0196
     18 H          41.0676   15.6266   31.5586 H       1  UNL1        0.0654
     19 C          40.9530   17.0860   29.9200 C.ar    1  UNL1        0.1169
     20 C          40.0820   17.8940   29.1270 C.ar    1  UNL1       -0.0196
     21 H          40.4953   18.5379   28.3506 H       1  UNL1        0.0654
     22 C          38.6720   17.8610   29.3480 C.ar    1  UNL1       -0.0511
     23 H          38.0173   18.4806   28.7353 H       1  UNL1        0.0625
     24 O          42.2880   17.1250   29.6860 O.3     1  UNL1       -0.5068
     25 H          42.6544   18.0537   29.9391 H       1  UNL1        0.2921
     26 O          31.9660   14.6410   33.7920 O.3     1  UNL1       -0.5066
     27 H          31.2846   15.2043   34.3205 H       1  UNL1        0.2921
     28 O          31.4570   17.6140   30.0270 O.3     1  UNL1       -0.5066
     29 H          31.7470   18.6021   30.0060 H       1  UNL1        0.2921
@<TRIPOS>BOND
     1     1     2   ar
     2     1     8   ar
     3     1    28    1
     4     2     4   ar
     5     2     3    1
     6     4     5   ar
     7     4    26    1
     8     5     7   ar
     9     5     6    1
    10     7     8   ar
    11     7    10    1
    12     8     9    1
    13    10    12    2
    14    10    11    1
    15    12    14    1
    16    12    13    1
    17    14    15   ar
    18    14    22   ar
    19    15    17   ar
    20    15    16    1
    21    17    19   ar
    22    17    18    1
    23    19    20   ar
    24    19    24    1
    25    20    22   ar
    26    20    21    1
    27    22    23    1
    28    24    25    1
    29    26    27    1
    30    28    29    1
