@<TRIPOS>MOLECULE
LIGAND
 63 67 0 0 0
SMALL
GASTEIGER

@<TRIPOS>ATOM
      1 C          31.1720   -0.2380   28.7070 C.3     1  UNL1        0.0760
      2 H          31.0931   -0.3224   29.8074 H       1  UNL1        0.0504
      3 C          31.2760   -1.6690   28.1770 C.3     1  UNL1        0.1412
      4 H          32.0203   -2.2068   28.7837 H       1  UNL1        0.0799
      5 O          30.0500   -2.3690   28.4310 O.3     1  UNL1       -0.4817
      6 C          28.8610   -1.9480   27.9670 C.ar    1  UNL1        0.1350
      7 C          27.9320   -2.9010   27.5800 C.ar    1  UNL1       -0.0154
      8 H          28.1542   -3.9573   27.7316 H       1  UNL1        0.0656
      9 C          26.7240   -2.5350   27.0030 C.ar    1  UNL1       -0.0167
     10 H          26.0814   -3.2823   26.5373 H       1  UNL1        0.0655
     11 C          26.3460   -1.1830   27.0310 C.ar    1  UNL1        0.1181
     12 O          25.1280   -0.8570   26.5840 O.3     1  UNL1       -0.5067
     13 H          25.0516    0.1675   26.5105 H       1  UNL1        0.2921
     14 C          27.2840   -0.2150   27.4260 C.ar    1  UNL1       -0.0032
     15 H          27.0045    0.8381   27.3950 H       1  UNL1        0.0666
     16 C          28.5550   -0.5630   27.8540 C.ar    1  UNL1        0.0537
     17 S          29.6080    0.4570   28.1910 S.3     1  UNL1       -0.1094
     18 C          32.4700    0.4800   28.4200 C.ar    1  UNL1       -0.0301
     19 C          32.6800    1.3800   27.3730 C.ar    1  UNL1       -0.0539
     20 H          31.8675    1.6111   26.6842 H       1  UNL1        0.0622
     21 C          33.9320    1.9870   27.2050 C.ar    1  UNL1       -0.0199
     22 H          34.0953    2.6824   26.3817 H       1  UNL1        0.0654
     23 C          34.9760    1.6980   28.0990 C.ar    1  UNL1        0.1169
     24 O          36.1910    2.2510   27.9230 O.3     1  UNL1       -0.5068
     25 H          36.9000    1.6860   28.4118 H       1  UNL1        0.2921
     26 C          34.7830    0.7840   29.1430 C.ar    1  UNL1       -0.0199
     27 H          35.6032    0.5288   29.8140 H       1  UNL1        0.0654
     28 C          33.5190    0.2030   29.3110 C.ar    1  UNL1       -0.0539
     29 H          33.3474   -0.4750   30.1470 H       1  UNL1        0.0622
     30 C          31.6300   -1.8400   26.7020 C.ar    1  UNL1       -0.0057
     31 C          32.6480   -2.7670   26.4480 C.ar    1  UNL1       -0.0516
     32 H          33.1205   -3.2805   27.2854 H       1  UNL1        0.0623
     33 C          33.0730   -3.0500   25.1480 C.ar    1  UNL1       -0.0196
     34 H          33.8424   -3.8019   24.9727 H       1  UNL1        0.0654
     35 C          32.4960   -2.3520   24.0600 C.ar    1  UNL1        0.1204
     36 C          31.4550   -1.4710   24.2950 C.ar    1  UNL1       -0.0196
     37 H          30.9433   -1.0029   23.4540 H       1  UNL1        0.0654
     38 C          31.0470   -1.1710   25.6230 C.ar    1  UNL1       -0.0516
     39 H          30.2786   -0.4184   25.7997 H       1  UNL1        0.0623
     40 O          32.9110   -2.5720   22.7850 O.3     1  UNL1       -0.4938
     41 C          34.0020   -3.4000   22.3460 C.3     1  UNL1        0.0750
     42 H          34.3997   -4.0684   23.1191 H       1  UNL1        0.0677
     43 H          34.8354   -2.7288   22.0713 H       1  UNL1        0.0677
     44 C          33.6550   -4.3840   21.2060 C.3     1  UNL1       -0.0555
     45 H          33.0771   -5.2015   21.6765 H       1  UNL1        0.0091
     46 H          34.5750   -4.8437   20.8101 H       1  UNL1        0.0091
     47 N          32.8000   -4.0120   20.0540 N.3     1  UNL1        0.3819
     48 H          32.4248   -4.9327   19.8505 H       1  UNL1       -0.0817
     49 C          31.5970   -3.2410   20.3190 C.3     1  UNL1       -0.0905
     50 H          31.8950   -2.1972   20.4989 H       1  UNL1        0.0059
     51 H          31.1253   -3.6247   21.2365 H       1  UNL1        0.0059
     52 C          30.5570   -3.2640   19.1770 C.3     1  UNL1       -0.0681
     53 H          29.7656   -2.5506   19.4575 H       1  UNL1        0.0247
     54 H          30.0729   -4.2549   19.1109 H       1  UNL1        0.0247
     55 C          31.1870   -2.9120   17.8130 C.3     1  UNL1       -0.0564
     56 H          31.5113   -1.8555   17.8003 H       1  UNL1        0.0264
     57 H          30.4559   -3.0304   16.9933 H       1  UNL1        0.0264
     58 C          32.4130   -3.8420   17.6170 C.3     1  UNL1       -0.0681
     59 H          32.9393   -3.6069   16.6782 H       1  UNL1        0.0247
     60 H          32.0839   -4.8933   17.5339 H       1  UNL1        0.0247
     61 C          33.4340   -3.6740   18.7760 C.3     1  UNL1       -0.0905
     62 H          34.2956   -4.3392   18.6161 H       1  UNL1        0.0059
     63 H          33.8078   -2.6408   18.8276 H       1  UNL1        0.0059
@<TRIPOS>BOND
     1     1     3    1
     2     1    17    1
     3     1    18    1
     4     1     2    1
     5     3     5    1
     6     3    30    1
     7     3     4    1
     8     5     6    1
     9     6     7   ar
    10     6    16   ar
    11     7     9   ar
    12     7     8    1
    13     9    11   ar
    14     9    10    1
    15    11    12    1
    16    11    14   ar
    17    12    13    1
    18    14    16   ar
    19    14    15    1
    20    16    17    1
    21    18    19   ar
    22    18    28   ar
    23    19    21   ar
    24    19    20    1
    25    21    23   ar
    26    21    22    1
    27    23    24    1
    28    23    26   ar
    29    24    25    1
    30    26    28   ar
    31    26    27    1
    32    28    29    1
    33    30    31   ar
    34    30    38   ar
    35    31    33   ar
    36    31    32    1
    37    33    35   ar
    38    33    34    1
    39    35    36   ar
    40    35    40    1
    41    36    38   ar
    42    36    37    1
    43    38    39    1
    44    40    41    1
    45    41    44    1
    46    41    42    1
    47    41    43    1
    48    44    47    1
    49    44    45    1
    50    44    46    1
    51    47    49    1
    52    47    61    1
    53    47    48    1
    54    49    52    1
    55    49    50    1
    56    49    51    1
    57    52    55    1
    58    52    53    1
    59    52    54    1
    60    55    58    1
    61    55    56    1
    62    55    57    1
    63    58    61    1
    64    58    59    1
    65    58    60    1
    66    61    62    1
    67    61    63    1
