@<TRIPOS>MOLECULE
LIGAND
 31 30 0 0 0
SMALL
GASTEIGER

@<TRIPOS>ATOM
      1 O          56.4220    4.6030    8.5350 O.3     1  UNL1       -0.3944
      2 H          57.3430    4.2261    8.2692 H       1  UNL1        0.2094
      3 C          54.2700    4.0680    7.3520 C.3     1  UNL1        0.0227
      4 C          55.4240    3.6040    8.3380 C.3     1  UNL1        0.0521
      5 H          55.0082    3.3319    9.3237 H       1  UNL1        0.0563
      6 H          55.9000    2.6941    7.9308 H       1  UNL1        0.0563
      7 C          54.9570    4.6000    6.0220 C.3     1  UNL1       -0.0549
      8 H          54.1960    4.9033    5.2835 H       1  UNL1        0.0237
      9 H          55.6035    5.4720    6.2052 H       1  UNL1        0.0237
     10 H          55.5753    3.8179    5.5530 H       1  UNL1        0.0237
     11 C          53.4530    2.8270    7.1020 C.3     1  UNL1       -0.0549
     12 H          52.6274    3.0080    6.3924 H       1  UNL1        0.0237
     13 H          54.0669    2.0167    6.6740 H       1  UNL1        0.0237
     14 H          53.0002    2.4500    8.0344 H       1  UNL1        0.0237
     15 C          53.3530    5.3320    7.9900 C.3     1  UNL1        0.1380
     16 H          53.0646    5.0801    9.0220 H       1  UNL1        0.0696
     17 O          54.1660    6.5480    8.0040 O.3     1  UNL1       -0.3820
     18 H          55.1642    6.2944    7.9899 H       1  UNL1        0.2105
     19 C          52.0560    5.6780    7.1210 C.2     1  UNL1        0.2423
     20 O          52.1710    6.5550    6.1200 O.2     1  UNL1       -0.2730
     21 N          50.9080    5.0760    7.3850 N.am    1  UNL1       -0.3126
     22 H          50.8597    4.4549    8.2053 H       1  UNL1        0.1488
     23 C          49.6790    5.2500    6.5560 C.3     1  UNL1        0.0219
     24 H          49.3158    4.2527    6.2534 H       1  UNL1        0.0467
     25 H          49.9608    5.7665    5.6294 H       1  UNL1        0.0467
     26 C          48.5740    6.0540    7.3050 C.3     1  UNL1        0.0647
     27 H          48.1494    5.4155    8.0947 H       1  UNL1        0.0394
     28 H          47.7835    6.3067    6.5832 H       1  UNL1        0.0394
     29 C          49.1200    7.3540    7.9370 C.2     1  UNL1        0.3575
     30 O          49.6170    7.3980    9.1700 O.co2   1  UNL1       -0.2463
     31 O          49.0410    8.4140    7.1470 O.co2   1  UNL1       -0.2463
@<TRIPOS>BOND
     1     1     4    1
     2     1     2    1
     3     3     4    1
     4     3     7    1
     5     3    11    1
     6     3    15    1
     7     4     5    1
     8     4     6    1
     9     7     8    1
    10     7     9    1
    11     7    10    1
    12    11    12    1
    13    11    13    1
    14    11    14    1
    15    15    17    1
    16    15    19    1
    17    15    16    1
    18    17    18    1
    19    19    20    2
    20    19    21   am
    21    21    23    1
    22    21    22    1
    23    23    26    1
    24    23    24    1
    25    23    25    1
    26    26    29    1
    27    26    27    1
    28    26    28    1
    29    29    30   ar
    30    29    31   ar
