@<TRIPOS>MOLECULE
LIGAND
 48 51 0 0 0
SMALL
GASTEIGER

@<TRIPOS>ATOM
      1 O          13.6340   27.3160    2.8270 O.2     1  UNL1       -0.2927
      2 C          13.0950   26.6900    3.6740 C.2     1  UNL1        0.1561
      3 C          11.5840   26.5160    3.7250 C.3     1  UNL1        0.0104
      4 H          11.3188   25.6306    3.1263 H       1  UNL1        0.0345
      5 H          11.1959   27.4182    3.2329 H       1  UNL1        0.0345
      6 C          13.9840   26.0000    4.6460 C.2     1  UNL1       -0.0197
      7 H          15.0784   25.9505    4.5135 H       1  UNL1        0.0652
      8 C          13.3030   25.3140    5.7080 C.2     1  UNL1       -0.0629
      9 C          14.2420   24.5200    6.6480 C.3     1  UNL1       -0.0308
     10 H          15.2773   24.8725    6.5174 H       1  UNL1        0.0310
     11 H          14.2339   23.4666    6.3084 H       1  UNL1        0.0310
     12 C          11.9310   25.3170    6.0270 C.3     1  UNL1       -0.0160
     13 H          11.5713   24.3543    5.5907 H       1  UNL1        0.0349
     14 C          11.1140   26.3650    5.2110 C.3     1  UNL1       -0.0392
     15 H          10.0424   26.1040    5.2033 H       1  UNL1        0.0275
     16 H          11.1919   27.3570    5.6920 H       1  UNL1        0.0275
     17 C          11.5690   25.2100    7.4190 C.3     1  UNL1       -0.0314
     18 H          11.8764   26.2300    7.7656 H       1  UNL1        0.0309
     19 C          12.3050   24.4370    8.3560 C.3     1  UNL1       -0.0339
     20 H          12.1282   23.4008    7.9832 H       1  UNL1        0.0307
     21 C          13.8460   24.5280    8.1510 C.3     1  UNL1       -0.0460
     22 H          14.2207   25.4618    8.6075 H       1  UNL1        0.0271
     23 H          14.3614   23.7019    8.6719 H       1  UNL1        0.0271
     24 C          10.0550   25.3520    7.7300 C.3     1  UNL1       -0.0488
     25 H           9.4925   24.5292    7.2545 H       1  UNL1        0.0268
     26 H           9.6494   26.2854    7.3024 H       1  UNL1        0.0268
     27 C           9.7310   25.3670    9.2480 C.3     1  UNL1       -0.0435
     28 H           8.6339   25.3336    9.3804 H       1  UNL1        0.0272
     29 H          10.0304   26.3648    9.6195 H       1  UNL1        0.0272
     30 C          10.4130   24.2660   10.0830 C.3     1  UNL1        0.0111
     31 C          11.8900   24.3280    9.7230 C.3     1  UNL1       -0.0289
     32 H          12.1342   25.3694   10.0512 H       1  UNL1        0.0310
     33 C           9.8450   22.8630    9.6540 C.3     1  UNL1       -0.0558
     34 H          10.3528   22.0314   10.1689 H       1  UNL1        0.0236
     35 H           8.7693   22.7810    9.8829 H       1  UNL1        0.0236
     36 H           9.9584   22.6852    8.5726 H       1  UNL1        0.0236
     37 C          10.4240   24.3410   11.6060 C.3     1  UNL1        0.1317
     38 O           9.2540   23.8750   12.2860 O.3     1  UNL1       -0.3760
     39 H           8.6205   24.6027   12.2465 H       1  UNL1        0.2114
     40 C          11.6680   23.5360   12.0170 C.3     1  UNL1       -0.0118
     41 H          11.3693   22.4923   12.2089 H       1  UNL1        0.0303
     42 H          12.1269   23.8810   12.9586 H       1  UNL1        0.0303
     43 C          12.6380   23.5840   10.8150 C.3     1  UNL1       -0.0458
     44 H          13.5872   24.0830   11.0701 H       1  UNL1        0.0269
     45 H          12.9104   22.5582   10.5158 H       1  UNL1        0.0269
     46 C          10.6670   25.7460   12.0480 C.1     1  UNL1       -0.0704
     47 C          10.9800   26.8940   12.5100 C.1     1  UNL1       -0.1163
     48 H          11.2576   27.8554   12.8828 H       1  UNL1        0.1229
@<TRIPOS>BOND
     1     1     2    2
     2     2     3    1
     3     2     6    1
     4     3    14    1
     5     3     4    1
     6     3     5    1
     7     6     8    2
     8     6     7    1
     9     8     9    1
    10     8    12    1
    11     9    21    1
    12     9    10    1
    13     9    11    1
    14    12    14    1
    15    12    17    1
    16    12    13    1
    17    14    15    1
    18    14    16    1
    19    17    19    1
    20    17    24    1
    21    17    18    1
    22    19    21    1
    23    19    31    1
    24    19    20    1
    25    21    22    1
    26    21    23    1
    27    24    27    1
    28    24    25    1
    29    24    26    1
    30    27    30    1
    31    27    28    1
    32    27    29    1
    33    30    31    1
    34    30    33    1
    35    30    37    1
    36    31    43    1
    37    31    32    1
    38    33    34    1
    39    33    35    1
    40    33    36    1
    41    37    38    1
    42    37    40    1
    43    37    46    1
    44    38    39    1
    45    40    43    1
    46    40    41    1
    47    40    42    1
    48    43    44    1
    49    43    45    1
    50    46    47    3
    51    47    48    1
