@<TRIPOS>MOLECULE
LIGAND
 37 39 0 0 0
SMALL
GASTEIGER

@<TRIPOS>ATOM
      1 C          15.7490   -9.4330   18.2100 C.ar    1  UNL1        0.0161
      2 H          15.5277   -9.0305   19.1985 H       1  UNL1        0.0683
      3 C          16.3320  -10.4880   15.6250 C.ar    1  UNL1       -0.0434
      4 H          16.5489  -10.8990   14.6391 H       1  UNL1        0.0627
      5 C          16.7090   -8.7860   17.3680 C.ar    1  UNL1        0.1361
      6 C          15.0900  -10.5960   17.7530 C.ar    1  UNL1        0.1269
      7 C          15.3760  -11.1360   16.4530 C.ar    1  UNL1       -0.0255
      8 H          14.8649  -12.0337   16.1052 H       1  UNL1        0.0646
      9 C          17.0160   -9.3080   16.0570 C.ar    1  UNL1        0.0785
     10 F          16.5590   -2.2600    8.9250 F       1  UNL1       -0.2023
     11 F          14.1880  -11.1810   18.5750 F       1  UNL1       -0.2054
     12 C          18.0090   -8.6890   15.1130 C.2     1  UNL1        0.2479
     13 C          18.1820   -5.8950   13.3140 C.ar    1  UNL1        0.0968
     14 F          13.9470   -5.4410   11.4080 F       1  UNL1       -0.2042
     15 O          17.4100   -7.6270   17.7340 O.3     1  UNL1       -0.4798
     16 O          18.5170   -9.3520   14.1870 O.2     1  UNL1       -0.2701
     17 C          19.0650   -6.5780   14.3330 C.3     1  UNL1        0.0607
     18 H          19.6762   -5.8232   14.8580 H       1  UNL1        0.0532
     19 H          19.7885   -7.2285   13.8176 H       1  UNL1        0.0532
     20 C          16.9030   -6.7910   18.7820 C.3     1  UNL1        0.1901
     21 H          17.7078   -6.0798   19.0126 H       1  UNL1        0.0817
     22 H          16.6465   -7.3265   19.7064 H       1  UNL1        0.0817
     23 N          18.6190   -4.9630   12.4760 N.ar    1  UNL1       -0.2393
     24 S          16.5050   -6.3070   13.1860 S.2     1  UNL1       -0.0675
     25 F          18.8220   -2.9220   10.3870 F       1  UNL1       -0.2002
     26 C          16.2950   -5.1940   11.9370 C.ar    1  UNL1        0.0774
     27 C          16.4890   -3.2000    9.8950 C.ar    1  UNL1        0.1633
     28 C          17.5640   -4.5340   11.6670 C.ar    1  UNL1        0.1192
     29 C          15.1370   -4.8360   11.1700 C.ar    1  UNL1        0.1420
     30 C          15.2330   -3.8480   10.1570 C.ar    1  UNL1        0.0129
     31 H          14.3513   -3.5792    9.5752 H       1  UNL1        0.0676
     32 C          17.6630   -3.5330   10.6420 C.ar    1  UNL1        0.1849
     33 C          15.6990   -6.0300   18.2590 C.2     1  UNL1        0.3927
     34 O          15.3220   -5.7950   17.1080 O.co2   1  UNL1       -0.2425
     35 O          14.9480   -5.5550   19.2740 O.co2   1  UNL1       -0.2425
     36 N          18.3440   -7.3480   15.3130 N.am    1  UNL1       -0.3051
     37 H          18.0650   -6.8931   16.1940 H       1  UNL1        0.1494
@<TRIPOS>BOND
     1     1     5   ar
     2     1     6   ar
     3     1     2    1
     4     3     7   ar
     5     3     9   ar
     6     3     4    1
     7     5     9   ar
     8     5    15    1
     9     6     7   ar
    10     6    11    1
    11     7     8    1
    12     9    12    1
    13    10    27    1
    14    12    16    2
    15    12    36   am
    16    13    17    1
    17    13    23   ar
    18    13    24   ar
    19    14    29    1
    20    15    20    1
    21    17    36    1
    22    17    18    1
    23    17    19    1
    24    20    33    1
    25    20    21    1
    26    20    22    1
    27    23    28   ar
    28    24    26   ar
    29    25    32    1
    30    26    28   ar
    31    26    29   ar
    32    27    30   ar
    33    27    32   ar
    34    28    32   ar
    35    29    30   ar
    36    30    31    1
    37    33    34   ar
    38    33    35   ar
    39    36    37    1
