@<TRIPOS>MOLECULE
LIGAND
 69 73 0 0 0
SMALL
GASTEIGER

@<TRIPOS>ATOM
      1 C          32.6960   24.7000   47.5410 C.ar    1  UNL1       -0.0430
      2 H          33.6456   25.1363   47.8508 H       1  UNL1        0.0633
      3 C          31.8180   25.4090   46.7190 C.ar    1  UNL1       -0.0497
      4 H          32.0758   26.4078   46.3667 H       1  UNL1        0.0625
      5 C          30.6070   24.8220   46.3550 C.ar    1  UNL1        0.0186
      6 C          30.2890   23.5400   46.7930 C.ar    1  UNL1        0.0367
      7 H          29.3449   23.0784   46.5039 H       1  UNL1        0.0836
      8 N          31.1560   22.8770   47.5750 N.ar    1  UNL1       -0.2626
      9 C          32.3300   23.4240   47.9550 C.ar    1  UNL1        0.0276
     10 H          33.0027   22.8558   48.5974 H       1  UNL1        0.0829
     11 C          29.6570   25.5420   45.4790 C.ar    1  UNL1        0.0775
     12 C          29.9720   26.7830   44.9260 C.ar    1  UNL1       -0.0174
     13 H          30.9255   27.2659   45.1397 H       1  UNL1        0.0654
     14 C          29.0340   27.3880   44.0930 C.ar    1  UNL1        0.0332
     15 H          29.2570   28.3522   43.6361 H       1  UNL1        0.0831
     16 N          27.8540   26.7890   43.8490 N.ar    1  UNL1       -0.2226
     17 C          27.5660   25.5940   44.4210 C.ar    1  UNL1        0.2200
     18 N          28.4650   24.9750   45.2160 N.ar    1  UNL1       -0.2142
     19 N          26.4040   24.9540   44.2010 N.pl3   1  UNL1       -0.2833
     20 H          26.3116   23.9853   44.5387 H       1  UNL1        0.1550
     21 C          25.3470   25.5110   43.5600 C.ar    1  UNL1        0.0383
     22 C          24.2990   26.0650   44.2940 C.ar    1  UNL1       -0.0291
     23 C          23.2070   26.6100   43.6280 C.ar    1  UNL1       -0.0553
     24 H          22.3886   27.0468   44.2002 H       1  UNL1        0.0621
     25 C          23.1490   26.6030   42.2330 C.ar    1  UNL1       -0.0401
     26 H          22.2851   27.0272   41.7214 H       1  UNL1        0.0636
     27 C          24.1950   26.0540   41.4950 C.ar    1  UNL1        0.0354
     28 C          25.2830   25.4900   42.1650 C.ar    1  UNL1       -0.0190
     29 H          26.0893   25.0294   41.5941 H       1  UNL1        0.0655
     30 N          24.0610   26.0500   40.0970 N.am    1  UNL1       -0.2814
     31 H          23.1774   26.4060   39.7054 H       1  UNL1        0.1551
     32 C          24.9820   25.6240   39.2380 C.2     1  UNL1        0.2483
     33 C          24.6520   25.6310   37.7790 C.ar    1  UNL1        0.0370
     34 C          25.4430   24.8950   36.8960 C.ar    1  UNL1       -0.0493
     35 H          26.2944   24.3237   37.2658 H       1  UNL1        0.0625
     36 C          25.1350   24.8970   35.5390 C.ar    1  UNL1       -0.0566
     37 H          25.7465   24.3293   34.8376 H       1  UNL1        0.0621
     38 C          24.0400   25.6290   35.0810 C.ar    1  UNL1       -0.0333
     39 C          23.2420   26.3570   35.9610 C.ar    1  UNL1       -0.0566
     40 H          22.3872   26.9242   35.5926 H       1  UNL1        0.0621
     41 C          23.5530   26.3490   37.3180 C.ar    1  UNL1       -0.0493
     42 H          22.9340   26.9066   38.0210 H       1  UNL1        0.0625
     43 C          23.7080   25.6150   33.6100 C.3     1  UNL1        0.0239
     44 H          22.7288   25.1103   33.5028 H       1  UNL1        0.0476
     45 H          24.4386   24.9842   33.0708 H       1  UNL1        0.0476
     46 N          23.6120   26.9460   33.0270 N.3     1  UNL1       -0.3017
     47 C          24.7780   27.8090   33.1870 C.3     1  UNL1       -0.0157
     48 H          25.6517   27.4414   32.6150 H       1  UNL1        0.0408
     49 H          25.0858   27.8389   34.2435 H       1  UNL1        0.0408
     50 C          24.4070   29.2250   32.7690 C.3     1  UNL1       -0.0778
     51 H          25.2962   29.8705   32.7668 H       1  UNL1        0.0071
     52 H          23.6572   29.6609   33.4454 H       1  UNL1        0.0071
     53 N          23.8580   29.1530   31.4220 N.3     1  UNL1        0.3795
     54 H          24.5897   28.6653   30.9198 H       1  UNL1       -0.0821
     55 C          23.8300   30.4370   30.7290 C.3     1  UNL1       -0.1031
     56 H          23.5852   30.2798   29.6711 H       1  UNL1        0.0023
     57 H          23.0733   31.0861   31.1865 H       1  UNL1        0.0023
     58 H          24.8152   30.9146   30.8007 H       1  UNL1        0.0023
     59 C          22.6960   28.3020   31.1910 C.3     1  UNL1       -0.0778
     60 H          22.4724   28.2800   30.1157 H       1  UNL1        0.0071
     61 H          21.8373   28.7526   31.7108 H       1  UNL1        0.0071
     62 C          22.9660   26.9000   31.7180 C.3     1  UNL1       -0.0157
     63 H          21.9986   26.3780   31.8025 H       1  UNL1        0.0408
     64 H          23.5752   26.3254   30.9927 H       1  UNL1        0.0408
     65 O          26.0670   25.2150   39.5910 O.2     1  UNL1       -0.2699
     66 C          24.3250   26.0840   45.8060 C.3     1  UNL1       -0.0380
     67 H          25.1908   26.6533   46.1826 H       1  UNL1        0.0278
     68 H          23.4172   26.5498   46.2163 H       1  UNL1        0.0278
     69 H          24.3940   25.0650   46.2198 H       1  UNL1        0.0278
@<TRIPOS>BOND
     1     1     3   ar
     2     1     9   ar
     3     1     2    1
     4     3     5   ar
     5     3     4    1
     6     5     6   ar
     7     5    11    1
     8     6     8   ar
     9     6     7    1
    10     8     9   ar
    11     9    10    1
    12    11    12   ar
    13    11    18   ar
    14    12    14   ar
    15    12    13    1
    16    14    16   ar
    17    14    15    1
    18    16    17   ar
    19    17    18   ar
    20    17    19    1
    21    19    21    1
    22    19    20    1
    23    21    22   ar
    24    21    28   ar
    25    22    23   ar
    26    22    66    1
    27    23    25   ar
    28    23    24    1
    29    25    27   ar
    30    25    26    1
    31    27    28   ar
    32    27    30    1
    33    28    29    1
    34    30    32   am
    35    30    31    1
    36    32    33    1
    37    32    65    2
    38    33    34   ar
    39    33    41   ar
    40    34    36   ar
    41    34    35    1
    42    36    38   ar
    43    36    37    1
    44    38    39   ar
    45    38    43    1
    46    39    41   ar
    47    39    40    1
    48    41    42    1
    49    43    46    1
    50    43    44    1
    51    43    45    1
    52    46    47    1
    53    46    62    1
    54    47    50    1
    55    47    48    1
    56    47    49    1
    57    50    53    1
    58    50    51    1
    59    50    52    1
    60    53    55    1
    61    53    59    1
    62    53    54    1
    63    55    56    1
    64    55    57    1
    65    55    58    1
    66    59    62    1
    67    59    60    1
    68    59    61    1
    69    62    63    1
    70    62    64    1
    71    66    67    1
    72    66    68    1
    73    66    69    1
