@<TRIPOS>MOLECULE
LIGAND
 34 35 0 0 0
SMALL
GASTEIGER

@<TRIPOS>ATOM
      1 C          -5.6700   52.5360  118.7470 C.3     1  UNL1        0.0819
      2 H          -5.8757   52.0611  117.7774 H       1  UNL1        0.0661
      3 H          -5.5931   53.6250  118.6004 H       1  UNL1        0.0661
      4 H          -4.7046   52.1657  119.1268 H       1  UNL1        0.0661
      5 O          -6.7340   52.1970  119.6030 O.3     1  UNL1       -0.4656
      6 C          -6.7480   52.6780  120.9590 C.ar    1  UNL1        0.3223
      7 N          -5.6720   53.4900  121.3960 N.ar    1  UNL1       -0.1802
      8 C          -5.7020   53.9620  122.7430 C.ar    1  UNL1        0.1349
      9 C          -4.6130   54.7740  123.1810 C.3     1  UNL1       -0.0043
     10 H          -3.7178   54.5966  122.5646 H       1  UNL1        0.0308
     11 H          -4.8292   55.8548  123.1241 H       1  UNL1        0.0308
     12 H          -4.3519   54.5671  124.2310 H       1  UNL1        0.0308
     13 N          -6.7590   53.6340  123.6260 N.ar    1  UNL1       -0.1993
     14 C          -7.8250   52.8060  123.1330 C.ar    1  UNL1        0.2290
     15 N          -8.8410   52.4660  123.9490 N.pl3   1  UNL1       -0.2334
     16 H          -8.8193   52.8295  124.9125 H       1  UNL1        0.1596
     17 C          -9.8820   51.6880  123.6020 C.2     1  UNL1        0.3579
     18 O         -10.1240   51.1410  122.5090 O.2     1  UNL1       -0.2459
     19 N         -10.6660   51.5410  124.6930 N.2     1  UNL1       -0.0717
     20 S         -12.0350   50.6070  124.6980 S.O2    1  UNL1        0.1045
     21 O         -13.2920   51.0400  124.1490 O.2     1  UNL1       -0.1462
     22 O         -11.8610   50.5510  126.1390 O.2     1  UNL1       -0.1462
     23 C         -11.4930   48.9690  124.3530 C.ar    1  UNL1        0.1308
     24 C         -12.4580   48.2930  123.5240 C.ar    1  UNL1       -0.0334
     25 H         -13.3654   48.8120  123.2152 H       1  UNL1        0.0638
     26 C         -12.2250   46.9030  123.0910 C.ar    1  UNL1       -0.0598
     27 H         -12.9570   46.3908  122.4665 H       1  UNL1        0.0618
     28 C         -10.9900   46.2120  123.5120 C.ar    1  UNL1       -0.0603
     29 H         -10.7999   45.1861  123.1967 H       1  UNL1        0.0618
     30 C         -10.0540   46.8930  124.3290 C.ar    1  UNL1       -0.0415
     31 H          -9.1447   46.3790  124.6405 H       1  UNL1        0.0633
     32 C         -10.2790   48.2540  124.7580 C.ar    1  UNL1        0.0678
     33 N          -7.7810   52.3560  121.8040 N.ar    1  UNL1       -0.1609
     34 CL         -9.0940   48.9900  125.7400 Cl      1  UNL1       -0.0815
@<TRIPOS>BOND
     1     1     5    1
     2     1     2    1
     3     1     3    1
     4     1     4    1
     5     5     6    1
     6     6     7   ar
     7     6    33   ar
     8     7     8   ar
     9     8     9    1
    10     8    13   ar
    11     9    10    1
    12     9    11    1
    13     9    12    1
    14    13    14   ar
    15    14    15    1
    16    14    33   ar
    17    15    17    1
    18    15    16    1
    19    17    18    1
    20    17    19    2
    21    19    20    1
    22    20    21    2
    23    20    22    2
    24    20    23    1
    25    23    24   ar
    26    23    32   ar
    27    24    26   ar
    28    24    25    1
    29    26    28   ar
    30    26    27    1
    31    28    30   ar
    32    28    29    1
    33    30    32   ar
    34    30    31    1
    35    32    34    1
