@<TRIPOS>MOLECULE
LIGAND
 33 35 0 0 0
SMALL
GASTEIGER

@<TRIPOS>ATOM
      1 O          17.4080    7.2290    2.0020 O.co2   1  UNL1       -0.2464
      2 C          17.9280    6.4240    2.7610 C.2     1  UNL1        0.3561
      3 O          17.1920    5.4060    3.1960 O.co2   1  UNL1       -0.2464
      4 C          19.3710    6.5730    3.1920 C.3     1  UNL1        0.0508
      5 H          19.4366    7.5218    3.7528 H       1  UNL1        0.0379
      6 H          20.0164    6.7376    2.3152 H       1  UNL1        0.0379
      7 C          19.8380    5.4040    4.0810 C.3     1  UNL1       -0.0247
      8 H          19.0828    5.1738    4.8534 H       1  UNL1        0.0288
      9 H          20.7529    5.7025    4.6185 H       1  UNL1        0.0288
     10 C          20.1330    4.1170    3.2890 C.3     1  UNL1        0.0244
     11 H          19.1846    3.7055    2.9098 H       1  UNL1        0.0492
     12 H          20.5789    3.3703    3.9647 H       1  UNL1        0.0492
     13 N          21.0330    4.3350    2.1460 N.ar    1  UNL1       -0.3398
     14 C          20.6150    4.5170    0.8490 C.ar    1  UNL1        0.0501
     15 C          19.3820    4.6100    0.2010 C.ar    1  UNL1       -0.0376
     16 H          18.4547    4.5191    0.7667 H       1  UNL1        0.0638
     17 C          21.8270    4.6580    0.0110 C.ar    1  UNL1        0.0076
     18 C          21.7870    4.8620   -1.3620 C.ar    1  UNL1       -0.0520
     19 H          22.6990    4.9481   -1.9527 H       1  UNL1        0.0624
     20 C          20.5190    4.9520   -1.9530 C.ar    1  UNL1       -0.0611
     21 H          20.4402    5.1261   -3.0261 H       1  UNL1        0.0618
     22 C          19.3480    4.8220   -1.1880 C.ar    1  UNL1       -0.0598
     23 H          18.3816    4.8877   -1.6879 H       1  UNL1        0.0618
     24 C          22.9600    4.5250    0.9060 C.ar    1  UNL1        0.0076
     25 C          22.3980    4.3210    2.2560 C.ar    1  UNL1        0.0501
     26 C          23.3060    4.1740    3.3110 C.ar    1  UNL1       -0.0376
     27 H          22.9517    4.0301    4.3317 H       1  UNL1        0.0638
     28 C          24.3290    4.5700    0.6410 C.ar    1  UNL1       -0.0520
     29 H          24.7134    4.7254   -0.3670 H       1  UNL1        0.0624
     30 C          25.1830    4.4050    1.7380 C.ar    1  UNL1       -0.0611
     31 H          26.2618    4.4246    1.5834 H       1  UNL1        0.0618
     32 C          24.6770    4.2150    3.0320 C.ar    1  UNL1       -0.0598
     33 H          25.3811    4.0941    3.8553 H       1  UNL1        0.0618
@<TRIPOS>BOND
     1     1     2   ar
     2     2     3   ar
     3     2     4    1
     4     4     7    1
     5     4     5    1
     6     4     6    1
     7     7    10    1
     8     7     8    1
     9     7     9    1
    10    10    13    1
    11    10    11    1
    12    10    12    1
    13    13    14   ar
    14    13    25   ar
    15    14    15   ar
    16    14    17   ar
    17    15    22   ar
    18    15    16    1
    19    17    18   ar
    20    17    24   ar
    21    18    20   ar
    22    18    19    1
    23    20    22   ar
    24    20    21    1
    25    22    23    1
    26    24    25   ar
    27    24    28   ar
    28    25    26   ar
    29    26    32   ar
    30    26    27    1
    31    28    30   ar
    32    28    29    1
    33    30    32   ar
    34    30    31    1
    35    32    33    1
