@<TRIPOS>MOLECULE
LIGAND
 29 29 0 0 0
SMALL
GASTEIGER

@<TRIPOS>ATOM
      1 N           2.1690    0.5040   24.1980 N.3     1  UNL1        0.3886
      2 H1          1.9963    1.3008   23.6129 H       1  UNL1       -0.0847
      3 H2          2.6208   -0.2498   23.6528 H       1  UNL1       -0.0847
      4 C           0.8890    0.0040   24.8850 C.3     1  UNL1       -0.0855
      5 H           0.5663   -0.9383   24.4162 H       1  UNL1        0.0060
      6 H           0.1349    0.7935   24.7296 H       1  UNL1        0.0060
      7 C          -0.9750   -0.0870   27.1820 C.2     1  UNL1       -0.0995
      8 H          -1.2298    0.0045   26.1262 H       1  UNL1        0.0534
      9 H          -1.7647   -0.1153   27.9328 H       1  UNL1        0.0534
     10 C           0.7020   -0.2880   28.9520 C.3     1  UNL1       -0.0438
     11 H           1.3328    0.5689   29.2485 H       1  UNL1        0.0274
     12 H          -0.1501   -0.3319   29.6443 H       1  UNL1        0.0274
     13 H           1.3111   -1.1960   29.0981 H       1  UNL1        0.0274
     14 CA          3.1870    0.7010   25.2160 C.3     1  UNL1        0.0271
     15 HA          3.7941    1.5789   24.9240 H       1  UNL1        0.0206
     16 C           2.4360    0.9210   26.5050 C.3     1  UNL1       -0.0285
     17 H           3.0965    0.7197   27.3658 H       1  UNL1        0.0300
     18 C           1.8050    2.3820   26.7350 C.3     1  UNL1        0.0515
     19 H           1.0112    2.3453   27.4994 H       1  UNL1        0.0381
     20 H           1.3303    2.7903   25.8297 H       1  UNL1        0.0381
     21 C           1.3620   -0.1190   26.4070 C.3     1  UNL1       -0.0333
     22 H           1.8762   -1.1006   26.4905 H       1  UNL1        0.0329
     23 C           2.8530    3.3780   27.2490 C.2     1  UNL1        0.3562
     24 C           0.2610   -0.1620   27.5430 C.2     1  UNL1       -0.0782
     25 C           4.2550   -0.4590   25.2630 C.2     1  UNL1        0.3428
     26 O           4.3490   -1.1400   24.2180 O.co2   1  UNL1       -0.2482
     27 O           2.4780    4.5590   27.2590 O.co2   1  UNL1       -0.2464
     28 O           3.9750    2.9610   27.6130 O.co2   1  UNL1       -0.2464
     29 OXT         4.9320   -0.5650   26.3310 O.co2   1  UNL1       -0.2482
@<TRIPOS>BOND
     1     1     4    1
     2     1    14    1
     3     1     2    1
     4     1     3    1
     5     4    21    1
     6     4     5    1
     7     4     6    1
     8     7    24    2
     9     7     8    1
    10     7     9    1
    11    10    24    1
    12    10    11    1
    13    10    12    1
    14    10    13    1
    15    14    16    1
    16    14    25    1
    17    14    15    1
    18    16    18    1
    19    16    21    1
    20    16    17    1
    21    18    23    1
    22    18    19    1
    23    18    20    1
    24    21    24    1
    25    21    22    1
    26    23    27   ar
    27    23    28   ar
    28    25    26   ar
    29    25    29   ar
