@<TRIPOS>MOLECULE
LIGAND
 40 41 0 0 0
SMALL
GASTEIGER

@<TRIPOS>ATOM
      1 C          15.8960   63.5110   37.0920 C.3     1  UNL1       -0.0612
      2 C          15.5990   62.2330   36.3390 C.3     1  UNL1       -0.0297
      3 C          16.7550   61.8740   35.4350 C.2     1  UNL1       -0.0368
      4 C          18.1270   61.7880   36.0280 C.ar    1  UNL1       -0.0214
      5 C          18.5620   60.5690   36.5240 C.ar    1  UNL1       -0.0509
      6 C          19.8120   60.4670   37.1070 C.ar    1  UNL1       -0.0196
      7 C          20.6290   61.5750   37.1920 C.ar    1  UNL1        0.1169
      8 O          21.8580   61.4390   37.7810 O.3     1  UNL1       -0.5068
      9 C          20.1980   62.8080   36.7100 C.ar    1  UNL1       -0.0196
     10 C          18.9360   62.9190   36.1260 C.ar    1  UNL1       -0.0509
     11 C          16.5290   61.6470   34.1530 C.2     1  UNL1       -0.0368
     12 C          15.1150   61.7390   33.6570 C.ar    1  UNL1       -0.0214
     13 C          14.7630   62.4820   32.5310 C.ar    1  UNL1       -0.0509
     14 C          13.4230   62.5160   32.1200 C.ar    1  UNL1       -0.0196
     15 C          12.4470   61.8160   32.8340 C.ar    1  UNL1        0.1169
     16 O          11.1180   61.8350   32.4560 O.3     1  UNL1       -0.5068
     17 C          12.8100   61.0840   33.9530 C.ar    1  UNL1       -0.0196
     18 C          14.1380   61.0480   34.3610 C.ar    1  UNL1       -0.0509
     19 C          17.6740   61.2560   33.2420 C.3     1  UNL1       -0.0297
     20 C          17.8200   59.7470   33.3270 C.3     1  UNL1       -0.0612
     21 H          15.0315   63.8110   37.7080 H       1  UNL1        0.0233
     22 H          16.7571   63.4278   37.7740 H       1  UNL1        0.0233
     23 H          16.1006   64.3389   36.3925 H       1  UNL1        0.0233
     24 H          14.6567   62.5397   35.8730 H       1  UNL1        0.0311
     25 H          15.3794   61.4186   37.0493 H       1  UNL1        0.0311
     26 H          17.9193   59.6913   36.4546 H       1  UNL1        0.0625
     27 H          20.1522   59.5090   37.5001 H       1  UNL1        0.0654
     28 H          22.0701   62.2825   38.3327 H       1  UNL1        0.2921
     29 H          20.8437   63.6826   36.7886 H       1  UNL1        0.0654
     30 H          18.5860   63.8804   35.7501 H       1  UNL1        0.0625
     31 H          15.5228   63.0315   31.9752 H       1  UNL1        0.0625
     32 H          13.1410   63.0918   31.2385 H       1  UNL1        0.0654
     33 H          10.8007   62.8106   32.3638 H       1  UNL1        0.2921
     34 H          12.0531   60.5358   34.5139 H       1  UNL1        0.0654
     35 H          14.4155   60.4711   35.2432 H       1  UNL1        0.0625
     36 H          18.6184   61.7616   33.5009 H       1  UNL1        0.0311
     37 H          17.4552   61.5394   32.1986 H       1  UNL1        0.0311
     38 H          18.5889   59.3841   32.6249 H       1  UNL1        0.0233
     39 H          18.1093   59.3874   34.3214 H       1  UNL1        0.0233
     40 H          16.8764   59.2439   33.0556 H       1  UNL1        0.0233
@<TRIPOS>BOND
     1     1     2    1
     2     2     3    1
     3     3     4    1
     4     3    11    2
     5     4     5   ar
     6     4    10   ar
     7     5     6   ar
     8     6     7   ar
     9     7     8    1
    10     7     9   ar
    11     9    10   ar
    12    11    12    1
    13    11    19    1
    14    12    13   ar
    15    12    18   ar
    16    13    14   ar
    17    14    15   ar
    18    15    16    1
    19    15    17   ar
    20    17    18   ar
    21    19    20    1
    22     1    21    1
    23     1    22    1
    24     1    23    1
    25     2    24    1
    26     2    25    1
    27     5    26    1
    28     6    27    1
    29     8    28    1
    30     9    29    1
    31    10    30    1
    32    13    31    1
    33    14    32    1
    34    16    33    1
    35    17    34    1
    36    18    35    1
    37    19    36    1
    38    19    37    1
    39    20    38    1
    40    20    39    1
    41    20    40    1
