@<TRIPOS>MOLECULE
LIGAND
 36 37 0 0 0
SMALL
GASTEIGER

@<TRIPOS>ATOM
      1 O          10.1980  139.4000   45.3180 O.3     1  UNL1       -0.3927
      2 H          10.9456  139.4557   46.0243 H       1  UNL1        0.2095
      3 C           9.1200  138.7210   45.8420 C.3     1  UNL1        0.0676
      4 H           8.2714  139.1440   45.2718 H       1  UNL1        0.0580
      5 H           8.9155  139.0471   46.8838 H       1  UNL1        0.0580
      6 C           8.9850  137.2500   45.8090 C.3     1  UNL1        0.0730
      7 H           7.8963  137.0367   45.8982 H       1  UNL1        0.0583
      8 H           9.3674  136.9801   46.8249 H       1  UNL1        0.0583
      9 O           9.5180  136.5090   44.8360 O.3     1  UNL1       -0.3569
     10 C          10.0070  135.4240   45.4490 C.3     1  UNL1        0.1283
     11 H           9.9893  134.6797   44.6190 H       1  UNL1        0.0801
     12 H           9.2321  134.9508   46.1016 H       1  UNL1        0.0801
     13 N          11.2300  135.2650   46.0150 N.ar    1  UNL1       -0.2765
     14 C          11.4230  134.8310   47.3900 C.ar    1  UNL1        0.3311
     15 O          10.4900  134.5950   48.1770 O.2     1  UNL1       -0.2464
     16 N          12.7660  134.7130   47.8470 N.ar    1  UNL1       -0.2746
     17 H          12.9356  134.4048   48.8151 H       1  UNL1        0.1734
     18 C          13.8810  135.0050   47.0160 C.ar    1  UNL1        0.2574
     19 O          15.0180  134.8390   47.4920 O.2     1  UNL1       -0.2674
     20 C          12.3720  135.5590   45.1880 C.ar    1  UNL1        0.0202
     21 H          12.2057  135.8797   44.1596 H       1  UNL1        0.0816
     22 C          13.6950  135.4480   45.6570 C.ar    1  UNL1        0.0376
     23 C          14.9030  135.8690   44.7380 C.3     1  UNL1        0.0041
     24 H          14.6170  135.7732   43.6779 H       1  UNL1        0.0364
     25 H          15.7416  135.1730   44.8979 H       1  UNL1        0.0364
     26 C          15.3760  137.2970   45.0040 C.ar    1  UNL1       -0.0428
     27 C          14.6280  138.4360   44.5000 C.ar    1  UNL1       -0.0583
     28 H          13.7090  138.2767   43.9360 H       1  UNL1        0.0620
     29 C          15.1000  139.7800   44.7450 C.ar    1  UNL1       -0.0615
     30 H          14.5431  140.6380   44.3686 H       1  UNL1        0.0618
     31 C          16.3190  139.9710   45.4950 C.ar    1  UNL1       -0.0617
     32 H          16.6854  140.9796   45.6864 H       1  UNL1        0.0618
     33 C          17.0540  138.8350   45.9920 C.ar    1  UNL1       -0.0615
     34 H          17.9728  138.9930   46.5567 H       1  UNL1        0.0618
     35 C          16.5920  137.5040   45.7530 C.ar    1  UNL1       -0.0583
     36 H          17.1541  136.6512   46.1337 H       1  UNL1        0.0620
@<TRIPOS>BOND
     1     1     3    1
     2     1     2    1
     3     3     6    1
     4     3     4    1
     5     3     5    1
     6     6     9    1
     7     6     7    1
     8     6     8    1
     9     9    10    1
    10    10    13    1
    11    10    11    1
    12    10    12    1
    13    13    14   ar
    14    13    20   ar
    15    14    15    2
    16    14    16   ar
    17    16    18   ar
    18    16    17    1
    19    18    19    2
    20    18    22   ar
    21    20    22   ar
    22    20    21    1
    23    22    23    1
    24    23    26    1
    25    23    24    1
    26    23    25    1
    27    26    27   ar
    28    26    35   ar
    29    27    29   ar
    30    27    28    1
    31    29    31   ar
    32    29    30    1
    33    31    33   ar
    34    31    32    1
    35    33    35   ar
    36    33    34    1
    37    35    36    1
