@<TRIPOS>MOLECULE
LIGAND
 60 63 0 0 0
SMALL
GASTEIGER

@<TRIPOS>ATOM
      1 C          51.8290   54.6770   20.8590 C.ar    1  UNL1        0.0368
      2 N          51.8880   55.6880   21.9190 N.ar    1  UNL1       -0.3308
      3 C          51.8600   55.1000   23.1260 C.ar    1  UNL1        0.0971
      4 N          51.7790   53.7750   22.9620 N.ar    1  UNL1       -0.2311
      5 C          51.7350   53.5200   21.5290 C.ar    1  UNL1        0.1428
      6 C          51.6070   52.1810   20.9160 C.2     1  UNL1        0.2613
      7 O          51.3610   52.1210   19.7260 O.2     1  UNL1       -0.2687
      8 N          51.7490   51.0960   21.6820 N.am    1  UNL1       -0.3240
      9 C          51.9880   57.1300   21.7230 C.3     1  UNL1        0.0600
     10 C          53.4550   57.5680   21.5660 C.3     1  UNL1        0.0650
     11 O          54.2510   57.2110   22.6660 O.3     1  UNL1       -0.3930
     12 C          51.1060   57.6310   20.5640 C.3     1  UNL1       -0.0119
     13 C          49.6510   57.1520   20.6020 C.3     1  UNL1        0.0252
     14 N          49.0410   57.3030   19.2790 N.ar    1  UNL1       -0.3465
     15 C          48.5480   58.4350   18.7040 C.ar    1  UNL1        0.0057
     16 C          48.0910   58.1640   17.4100 C.ar    1  UNL1       -0.0364
     17 C          48.3220   56.7580   17.2020 C.ar    1  UNL1       -0.0000
     18 C          48.9180   56.2500   18.3940 C.ar    1  UNL1        0.0508
     19 C          48.0750   55.9260   16.1420 C.ar    1  UNL1       -0.0508
     20 C          48.4170   54.5770   16.2390 C.ar    1  UNL1       -0.0398
     21 C          49.0150   54.0720   17.4080 C.ar    1  UNL1        0.0354
     22 C          49.2570   54.9300   18.4840 C.ar    1  UNL1       -0.0164
     23 N          49.3960   52.7740   17.5440 N.am    1  UNL1       -0.2854
     24 C          49.1610   51.7710   16.6630 C.2     1  UNL1        0.2175
     25 O          48.5250   51.8600   15.6130 O.2     1  UNL1       -0.2755
     26 C          49.8040   50.4740   17.1270 C.3     1  UNL1        0.0282
     27 C          49.1790   49.2540   16.4430 C.3     1  UNL1       -0.0194
     28 C          47.5840   48.9190   18.3820 C.ar    1  UNL1       -0.0586
     29 C          47.8190   48.8890   17.0080 C.ar    1  UNL1       -0.0469
     30 C          46.8090   48.4760   16.1420 C.ar    1  UNL1       -0.0586
     31 C          45.5800   48.0760   16.6460 C.ar    1  UNL1       -0.0615
     32 C          45.3560   48.0770   18.0230 C.ar    1  UNL1       -0.0617
     33 C          46.3550   48.5030   18.8860 C.ar    1  UNL1       -0.0615
     34 H          51.8554   54.8302   19.7801 H       1  UNL1        0.0833
     35 H          51.8972   55.6185   24.0841 H       1  UNL1        0.1029
     36 H          51.9572   51.1978   22.6856 H       1  UNL1        0.1453
     37 H          51.6502   50.1576   21.2691 H       1  UNL1        0.1453
     38 H          51.6305   57.5937   22.6604 H       1  UNL1        0.0551
     39 H          53.4869   58.6601   21.3930 H       1  UNL1        0.0578
     40 H          53.9060   57.0942   20.6807 H       1  UNL1        0.0578
     41 H          54.1990   57.9495   23.3821 H       1  UNL1        0.2095
     42 H          51.5617   57.2978   19.6141 H       1  UNL1        0.0303
     43 H          51.1407   58.7333   20.5495 H       1  UNL1        0.0303
     44 H          49.0928   57.7606   21.3324 H       1  UNL1        0.0492
     45 H          49.5599   56.1011   20.9083 H       1  UNL1        0.0492
     46 H          48.5144   59.4131   19.1839 H       1  UNL1        0.0809
     47 H          47.6515   58.8702   16.7056 H       1  UNL1        0.0639
     48 H          47.6162   56.3139   15.2326 H       1  UNL1        0.0625
     49 H          48.2191   53.9081   15.4014 H       1  UNL1        0.0636
     50 H          49.7162   54.5460   19.3949 H       1  UNL1        0.0657
     51 H          49.9137   52.5289   18.4000 H       1  UNL1        0.1548
     52 H          49.8758   50.3299   18.2172 H       1  UNL1        0.0362
     53 H          50.8579   50.5379   16.7927 H       1  UNL1        0.0362
     54 H          49.8653   48.4026   16.6031 H       1  UNL1        0.0318
     55 H          49.1230   49.3954   15.3524 H       1  UNL1        0.0318
     56 H          48.3621   49.2679   19.0609 H       1  UNL1        0.0620
     57 H          46.9847   48.4671   15.0663 H       1  UNL1        0.0620
     58 H          44.7889   47.7607   15.9657 H       1  UNL1        0.0618
     59 H          44.3973   47.7435   18.4202 H       1  UNL1        0.0618
     60 H          46.1772   48.5120   19.9614 H       1  UNL1        0.0618
@<TRIPOS>BOND
     1     1     2   ar
     2     1     5   ar
     3     2     3   ar
     4     2     9    1
     5     3     4   ar
     6     4     5   ar
     7     5     6    1
     8     6     7    2
     9     6     8   am
    10     9    10    1
    11     9    12    1
    12    10    11    1
    13    12    13    1
    14    13    14    1
    15    14    15   ar
    16    14    18   ar
    17    15    16   ar
    18    16    17   ar
    19    17    18   ar
    20    17    19   ar
    21    18    22   ar
    22    19    20   ar
    23    20    21   ar
    24    21    22   ar
    25    21    23    1
    26    23    24   am
    27    24    25    2
    28    24    26    1
    29    26    27    1
    30    27    29    1
    31    28    29   ar
    32    28    33   ar
    33    29    30   ar
    34    30    31   ar
    35    31    32   ar
    36    32    33   ar
    37     1    34    1
    38     3    35    1
    39     8    36    1
    40     8    37    1
    41     9    38    1
    42    10    39    1
    43    10    40    1
    44    11    41    1
    45    12    42    1
    46    12    43    1
    47    13    44    1
    48    13    45    1
    49    15    46    1
    50    16    47    1
    51    19    48    1
    52    20    49    1
    53    22    50    1
    54    23    51    1
    55    26    52    1
    56    26    53    1
    57    27    54    1
    58    27    55    1
    59    28    56    1
    60    30    57    1
    61    31    58    1
    62    32    59    1
    63    33    60    1
