@<TRIPOS>MOLECULE
LIGAND
 52 54 0 0 0
SMALL
GASTEIGER

@<TRIPOS>ATOM
      1 O          57.5260   30.7120   29.6960 O.3     1  UNL1       -0.3932
      2 H          57.4445   31.7254   29.5308 H       1  UNL1        0.2095
      3 C          58.5430   30.4700   30.6370 C.3     1  UNL1        0.0626
      4 H1         58.1943   29.7030   31.3465 H       1  UNL1        0.0575
      5 H2         58.7572   31.3873   31.2132 H       1  UNL1        0.0575
      6 CA         59.7790   30.0060   29.8600 C.3     1  UNL1        0.0461
      7 HA         59.9916   30.7068   29.0410 H       1  UNL1        0.0521
      8 C          60.9360   29.9110   30.8560 C.3     1  UNL1       -0.0352
      9 H          60.6331   30.2528   31.8618 H       1  UNL1        0.0281
     10 H          61.7423   30.6030   30.5567 H       1  UNL1        0.0281
     11 C          61.5400   28.5300   31.0020 C.3     1  UNL1       -0.0635
     12 H          62.3949   28.5509   31.6984 H       1  UNL1        0.0230
     13 H          60.8154   27.8014   31.4001 H       1  UNL1        0.0230
     14 H          61.9155   28.1459   30.0385 H       1  UNL1        0.0230
     15 N          59.3650   28.7200   29.3170 N.pl3   1  UNL1       -0.3083
     16 H          59.2173   27.9577   29.9938 H       1  UNL1        0.1493
     17 C          59.1540   28.4240   28.0090 C.ar    1  UNL1        0.2191
     18 N          58.7540   27.1700   27.6870 N.ar    1  UNL1       -0.1947
     19 C          58.5380   26.8490   26.4000 C.ar    1  UNL1        0.1674
     20 N          58.1300   25.6970   25.9200 N.ar    1  UNL1       -0.3123
     21 C          57.8910   24.6280   26.9030 C.3     1  UNL1        0.0317
     22 H          58.1029   25.0114   27.9145 H       1  UNL1        0.0523
     23 C          56.3900   24.3410   26.8940 C.3     1  UNL1       -0.0444
     24 H          56.1441   23.5928   27.6648 H       1  UNL1        0.0249
     25 H          55.8275   25.2606   27.1240 H       1  UNL1        0.0249
     26 H          56.0420   23.9524   25.9253 H       1  UNL1        0.0249
     27 C          58.8760   23.5100   26.6870 C.3     1  UNL1       -0.0444
     28 H          58.7389   22.7342   27.4577 H       1  UNL1        0.0249
     29 H          58.7650   23.0316   25.7023 H       1  UNL1        0.0249
     30 H          59.9080   23.8886   26.7685 H       1  UNL1        0.0249
     31 C          58.0350   25.8320   24.5670 C.ar    1  UNL1        0.0985
     32 H          57.6793   25.0536   23.8920 H       1  UNL1        0.1029
     33 C          58.7260   27.7150   25.3830 C.ar    1  UNL1        0.1476
     34 N          58.4500   27.0880   24.1650 N.ar    1  UNL1       -0.2306
     35 N          59.3420   29.3060   27.0100 N.ar    1  UNL1       -0.1974
     36 C          59.1360   28.9930   25.7240 C.ar    1  UNL1        0.1519
     37 N          59.2820   29.8860   24.7360 N.pl3   1  UNL1       -0.3231
     38 H          59.3331   29.5507   23.7634 H       1  UNL1        0.1479
     39 C          59.3710   31.3210   24.9960 C.3     1  UNL1        0.0357
     40 H          58.7897   31.5644   25.8976 H       1  UNL1        0.0511
     41 H          58.8712   31.8438   24.1608 H       1  UNL1        0.0511
     42 C          60.7840   31.8420   25.1170 C.ar    1  UNL1       -0.0304
     43 C          61.1160   32.7270   26.1490 C.ar    1  UNL1       -0.0571
     44 H          60.3576   33.0340   26.8692 H       1  UNL1        0.0621
     45 C          62.4230   33.2180   26.2560 C.ar    1  UNL1       -0.0615
     46 H          62.6876   33.8857   27.0759 H       1  UNL1        0.0618
     47 C          63.3890   32.8540   25.3140 C.ar    1  UNL1       -0.0617
     48 H          64.4038   33.2438   25.3940 H       1  UNL1        0.0618
     49 C          63.0520   31.9900   24.2700 C.ar    1  UNL1       -0.0615
     50 H          63.8023   31.7100   23.5306 H       1  UNL1        0.0618
     51 C          61.7520   31.4840   24.1730 C.ar    1  UNL1       -0.0571
     52 H          61.4920   30.8079   23.3585 H       1  UNL1        0.0621
@<TRIPOS>BOND
     1     1     3    1
     2     1     2    1
     3     3     6    1
     4     3     4    1
     5     3     5    1
     6     6     8    1
     7     6    15    1
     8     6     7    1
     9     8    11    1
    10     8     9    1
    11     8    10    1
    12    11    12    1
    13    11    13    1
    14    11    14    1
    15    15    17    1
    16    15    16    1
    17    17    18   ar
    18    17    35   ar
    19    18    19   ar
    20    19    20   ar
    21    19    33   ar
    22    20    21    1
    23    20    31   ar
    24    21    23    1
    25    21    27    1
    26    21    22    1
    27    23    24    1
    28    23    25    1
    29    23    26    1
    30    27    28    1
    31    27    29    1
    32    27    30    1
    33    31    34   ar
    34    31    32    1
    35    33    34   ar
    36    33    36   ar
    37    35    36   ar
    38    36    37    1
    39    37    39    1
    40    37    38    1
    41    39    42    1
    42    39    40    1
    43    39    41    1
    44    42    43   ar
    45    42    51   ar
    46    43    45   ar
    47    43    44    1
    48    45    47   ar
    49    45    46    1
    50    47    49   ar
    51    47    48    1
    52    49    51   ar
    53    49    50    1
    54    51    52    1
