@<TRIPOS>MOLECULE
LIGAND
 27 28 0 0 0
SMALL
GASTEIGER

@<TRIPOS>ATOM
      1 CL         -4.8020    4.5290   30.6010 Cl      1  UNL1       -0.0759
      2 C          -3.5890    3.2930   30.6160 C.ar    1  UNL1        0.1302
      3 C          -3.1120    2.7640   29.4620 C.ar    1  UNL1        0.1095
      4 C          -3.6290    3.1660   28.0780 C.3     1  UNL1        0.1239
      5 H          -2.8027    3.4700   27.4318 H       1  UNL1        0.0794
      6 H          -4.3630    3.9852   28.1198 H       1  UNL1        0.0794
      7 N          -4.2650    1.9450   27.4960 N.pl3   1  UNL1       -0.2222
      8 C          -5.2940    1.1310   28.1790 C.3     1  UNL1        0.0811
      9 H          -6.0756    1.7902   28.5976 H       1  UNL1        0.0726
     10 H          -4.8388    0.6086   29.0425 H       1  UNL1        0.0726
     11 C          -5.8240    0.1420   27.1130 C.3     1  UNL1       -0.0059
     12 H          -6.7991    0.5006   26.7283 H       1  UNL1        0.0307
     13 H          -6.0441   -0.8561   27.5278 H       1  UNL1        0.0307
     14 C          -4.7920    0.1450   25.9440 C.3     1  UNL1        0.0498
     15 H          -5.2499    0.2318   24.9491 H       1  UNL1        0.0386
     16 H          -4.1201   -0.7253   25.9604 H       1  UNL1        0.0386
     17 C          -3.9760    1.3960   26.2670 C.2     1  UNL1        0.2386
     18 N          -3.1160    1.9270   25.4500 N.2     1  UNL1       -0.2924
     19 H          -2.9291    1.4836   24.5393 H       1  UNL1        0.3005
     20 H          -2.6214    2.7913   25.7132 H       1  UNL1        0.3005
     21 N          -2.1490    1.7930   29.5710 N.ar    1  UNL1       -0.1926
     22 C          -1.6730    1.3490   30.7550 C.ar    1  UNL1        0.3490
     23 O          -0.8200    0.4700   30.7610 O.2     1  UNL1       -0.2446
     24 N          -2.1450    1.8640   31.9070 N.ar    1  UNL1       -0.2723
     25 H          -1.7969    1.5195   32.8131 H       1  UNL1        0.1735
     26 C          -3.0730    2.8300   31.8600 C.ar    1  UNL1        0.2729
     27 O          -3.4740    3.3130   32.8930 O.2     1  UNL1       -0.2661
@<TRIPOS>BOND
     1     1     2    1
     2     2     3   ar
     3     2    26   ar
     4     3     4    1
     5     3    21   ar
     6     4     7    1
     7     4     5    1
     8     4     6    1
     9     7     8    1
    10     7    17    1
    11     8    11    1
    12     8     9    1
    13     8    10    1
    14    11    14    1
    15    11    12    1
    16    11    13    1
    17    14    17    1
    18    14    15    1
    19    14    16    1
    20    17    18    2
    21    18    19    1
    22    18    20    1
    23    21    22   ar
    24    22    23    2
    25    22    24   ar
    26    24    26   ar
    27    24    25    1
    28    26    27    2
