@<TRIPOS>MOLECULE
LIGAND
 54 56 0 0 0
SMALL
GASTEIGER

@<TRIPOS>ATOM
      1 N          25.2760   -1.1690   35.1390 N.ar    1  UNL1       -0.1971
      2 C          22.6470    1.7330   38.7140 C.3     1  UNL1        0.0317
      3 H          22.5978    1.7950   39.8136 H       1  UNL1        0.0523
      4 N          23.4030    0.4990   38.3800 N.ar    1  UNL1       -0.3123
      5 C          23.9850    0.0940   37.2170 C.ar    1  UNL1        0.1675
      6 N          23.9440    0.6800   35.8860 N.ar    1  UNL1       -0.1947
      7 C          24.6310    0.0420   34.8920 C.ar    0  ACE0        0.2192
      8 C          25.3300   -1.7820   36.3630 C.ar    1  UNL1        0.1558
      9 C          24.7030   -1.1680   37.4670 C.ar    1  UNL1        0.1479
     10 N          24.5060   -1.4480   38.7840 N.ar    1  UNL1       -0.2306
     11 C          23.7470   -0.4480   39.3040 C.ar    1  UNL1        0.0986
     12 H          23.4437   -0.4053   40.3501 H       1  UNL1        0.1029
     13 N          25.9890   -2.9740   36.5700 N.pl3   1  UNL1       -0.2975
     14 H          25.8478   -3.4500   37.4724 H       1  UNL1        0.1536
     15 C          26.8160   -3.5670   35.6610 C.ar    1  UNL1        0.0338
     16 C          28.1070   -3.9710   36.0580 C.ar    1  UNL1       -0.0396
     17 H          28.4199   -3.8417   37.0941 H       1  UNL1        0.0636
     18 C          28.9820   -4.5320   35.1390 C.ar    1  UNL1       -0.0445
     19 H          29.9755   -4.8529   35.4524 H       1  UNL1        0.0627
     20 C          28.5780   -4.6840   33.7990 C.ar    1  UNL1        0.0815
     21 C          27.2240   -4.2230   33.3810 C.ar    1  UNL1        0.0568
     22 CL         26.7410   -4.3360   31.9420 Cl      1  UNL1       -0.0826
     23 C          26.3940   -3.6880   34.3530 C.ar    1  UNL1       -0.0214
     24 H          25.3918   -3.3575   34.0800 H       1  UNL1        0.0651
     25 C          29.5100   -5.2780   32.7970 C.2     1  UNL1        0.3879
     26 O          30.1350   -6.3150   33.0750 O.co2   1  UNL1       -0.2405
     27 O          29.6670   -4.7350   31.6930 O.co2   1  UNL1       -0.2405
     28 N          24.6340    0.5440   33.6180 N.pl3   1  UNL1       -0.3081
     29 H          24.1605    1.4274   33.3806 H       1  UNL1        0.1493
     30 CA         25.3470   -0.2440   32.6130 C.3     1  UNL1        0.0487
     31 HA         26.1341   -0.7916   33.1608 H       1  UNL1        0.0523
     32 CB         26.2920    0.5610   31.6970 C.3     1  UNL1       -0.0261
     33 HB         27.3030    0.1302   31.8667 H       1  UNL1        0.0314
     34 CG1        26.4770    2.0350   32.1370 C.3     1  UNL1       -0.0609
     35 HG11       27.2686    2.5209   31.5427 H       1  UNL1        0.0233
     36 HG12       25.5576    2.6271   32.0092 H       1  UNL1        0.0233
     37 HG13       26.7814    2.0921   33.1957 H       1  UNL1        0.0233
     38 CG2        26.0990    0.3400   30.2020 C.3     1  UNL1       -0.0609
     39 HG21       26.7738    0.9976   29.6272 H       1  UNL1        0.0233
     40 HG22       26.3563   -0.6901   29.9043 H       1  UNL1        0.0233
     41 HG23       25.0733    0.5567   29.8648 H       1  UNL1        0.0233
     42 C          24.5370   -1.3740   31.9510 C.3     1  UNL1        0.0628
     43 H1         24.5141   -2.2679   32.5821 H       1  UNL1        0.0576
     44 H2         24.9118   -1.6933   30.9684 H       1  UNL1        0.0576
     45 O          23.2040   -0.9450   31.8650 O.3     1  UNL1       -0.3932
     46 H          23.1742    0.0845   31.8533 H       1  UNL1        0.2095
     47 C          23.4690    2.8820   38.1590 C.3     1  UNL1       -0.0444
     48 H          23.0414    3.8419   38.4941 H       1  UNL1        0.0249
     49 H          24.5156    2.8554   38.5032 H       1  UNL1        0.0249
     50 H          23.4724    2.8978   37.0587 H       1  UNL1        0.0249
     51 C          21.2420    1.8350   38.1350 C.3     1  UNL1       -0.0444
     52 H          20.8010    2.7973   38.4428 H       1  UNL1        0.0249
     53 H          21.2595    1.7963   37.0342 H       1  UNL1        0.0249
     54 H          20.5791    1.0294   38.4851 H       1  UNL1        0.0249
@<TRIPOS>BOND
     1     1     7   ar
     2     1     8   ar
     3     2     4    1
     4     2    47    1
     5     2    51    1
     6     2     3    1
     7     4     5   ar
     8     4    11   ar
     9     5     6   ar
    10     5     9   ar
    11     6     7   ar
    12     7    28    1
    13     8     9   ar
    14     8    13    1
    15     9    10   ar
    16    10    11   ar
    17    11    12    1
    18    13    15    1
    19    13    14    1
    20    15    16   ar
    21    15    23   ar
    22    16    18   ar
    23    16    17    1
    24    18    20   ar
    25    18    19    1
    26    20    21   ar
    27    20    25    1
    28    21    22    1
    29    21    23   ar
    30    23    24    1
    31    25    26   ar
    32    25    27   ar
    33    28    30    1
    34    28    29    1
    35    30    32    1
    36    30    42    1
    37    30    31    1
    38    32    34    1
    39    32    38    1
    40    32    33    1
    41    34    35    1
    42    34    36    1
    43    34    37    1
    44    38    39    1
    45    38    40    1
    46    38    41    1
    47    42    45    1
    48    42    43    1
    49    42    44    1
    50    45    46    1
    51    47    48    1
    52    47    49    1
    53    47    50    1
    54    51    52    1
    55    51    53    1
    56    51    54    1
