@<TRIPOS>MOLECULE
LIGAND
 34 35 0 0 0
SMALL
GASTEIGER

@<TRIPOS>ATOM
      1 N          72.3650   46.4880   50.0860 N.ar    1  UNL1       -0.3148
      2 C          71.1030   46.9890   50.3430 C.ar    1  UNL1        0.0984
      3 H          70.2644   46.3961   50.7081 H       1  UNL1        0.1029
      4 N          71.0510   48.2700   50.0890 N.ar    1  UNL1       -0.2286
      5 C          72.2950   48.6540   49.6530 C.ar    1  UNL1        0.1720
      6 C          72.8050   49.9450   49.2380 C.ar    1  UNL1        0.2803
      7 O          72.1750   51.0160   49.1910 O.2     1  UNL1       -0.2654
      8 N          74.1800   49.9120   48.8540 N.ar    1  UNL1       -0.2934
      9 H          74.6170   50.7918   48.5444 H       1  UNL1        0.1716
     10 C          74.9780   48.7450   48.8730 C.ar    1  UNL1        0.1950
     11 N          76.2840   48.8480   48.4800 N.pl3   1  UNL1       -0.3289
     12 H          76.8900   48.0151   48.4832 H       1  UNL1        0.1451
     13 H          76.6615   49.7584   48.1808 H       1  UNL1        0.1451
     14 N          74.4860   47.5150   49.2700 N.ar    1  UNL1       -0.1964
     15 C          73.1450   47.5500   49.6440 C.ar    1  UNL1        0.1691
     16 C          72.6500   45.1320   50.2120 C.3     1  UNL1        0.0261
     17 H          73.2985   44.8186   49.3725 H       1  UNL1        0.0493
     18 H          71.7269   44.5301   50.1622 H       1  UNL1        0.0493
     19 C          73.4070   44.8400   51.5340 C.3     1  UNL1       -0.0347
     20 H          72.7062   44.6282   52.3572 H       1  UNL1        0.0282
     21 H          74.0019   45.7185   51.8427 H       1  UNL1        0.0282
     22 C          74.3640   43.6420   51.3350 C.3     1  UNL1       -0.0456
     23 H          74.8752   43.4108   52.2864 H       1  UNL1        0.0268
     24 H          75.1531   43.9041   50.6079 H       1  UNL1        0.0268
     25 C          73.6010   42.3740   50.8350 C.3     1  UNL1        0.0178
     26 H          73.3156   42.5260   49.7784 H       1  UNL1        0.0327
     27 H          72.6580   42.2500   51.3968 H       1  UNL1        0.0327
     28 C          74.4710   41.0990   50.9880 C.3     1  UNL1        0.2990
     29 F          74.4940   40.7400   52.2830 F       1  UNL1       -0.1974
     30 F          75.7270   41.3680   50.5970 F       1  UNL1       -0.1974
     31 P          73.9180   39.9670   50.1360 P.3     1  UNL1        0.1781
     32 O          72.4530   39.8050   50.3640 O.2     1  UNL1       -0.4547
     33 O          74.1700   40.2640   48.6970 O.3     1  UNL1       -0.3536
     34 O          74.6210   38.6860   50.4980 O.3     1  UNL1       -0.3536
@<TRIPOS>BOND
     1     1     2   ar
     2     1    15   ar
     3     1    16    1
     4     2     4   ar
     5     2     3    1
     6     4     5   ar
     7     5     6   ar
     8     5    15   ar
     9     6     7    2
    10     6     8   ar
    11     8    10   ar
    12     8     9    1
    13    10    11    1
    14    10    14   ar
    15    11    12    1
    16    11    13    1
    17    14    15   ar
    18    16    19    1
    19    16    17    1
    20    16    18    1
    21    19    22    1
    22    19    20    1
    23    19    21    1
    24    22    25    1
    25    22    23    1
    26    22    24    1
    27    25    28    1
    28    25    26    1
    29    25    27    1
    30    28    29    1
    31    28    30    1
    32    28    31    1
    33    31    32    2
    34    31    33    1
    35    31    34    1
