@<TRIPOS>MOLECULE
LIGAND
 35 37 0 0 0
SMALL
GASTEIGER

@<TRIPOS>ATOM
      1 S          36.3550   19.0670   60.8670 S.2     1  UNL1       -0.0605
      2 C          35.7380   19.4150   59.2920 C.ar    1  UNL1       -0.0030
      3 H          34.9480   20.1331   59.0723 H       1  UNL1        0.0709
      4 C          36.3890   18.6550   58.3640 C.ar    1  UNL1        0.0368
      5 H          36.1592   18.7119   57.3000 H       1  UNL1        0.0835
      6 N          37.3530   17.8140   58.8620 N.ar    1  UNL1       -0.2330
      7 C          37.4460   17.9280   60.1940 C.ar    1  UNL1        0.1646
      8 N          38.3390   17.1720   60.8990 N.am    1  UNL1       -0.2606
      9 H          38.8844   16.4923   60.3499 H       1  UNL1        0.1571
     10 C          38.6150   17.2040   62.3110 C.2     1  UNL1        0.2515
     11 O          38.0210   17.9870   63.0650 O.2     1  UNL1       -0.2697
     12 C          40.4410   16.3620   64.1070 C.ar    1  UNL1        0.0396
     13 C          39.6630   16.2270   62.8870 C.ar    1  UNL1        0.0589
     14 C          39.8660   15.0370   62.0990 C.ar    1  UNL1       -0.0312
     15 H          39.2965   14.9030   61.1793 H       1  UNL1        0.0638
     16 C          40.7850   14.0430   62.4920 C.ar    1  UNL1        0.0515
     17 C          41.5420   14.1920   63.6880 C.ar    1  UNL1        0.1389
     18 F          42.4410   13.2470   64.0960 F       1  UNL1       -0.2043
     19 C          41.3620   15.3510   64.4840 C.ar    1  UNL1       -0.0039
     20 H          41.9405   15.4673   65.4005 H       1  UNL1        0.0665
     21 S          40.9350   12.6300   61.4450 S.3     1  UNL1       -0.0488
     22 N          42.7210   10.8290   62.4010 N.ar    1  UNL1       -0.3284
     23 C          42.5260   11.8870   61.5220 C.ar    1  UNL1        0.1735
     24 N          43.5690   12.3250   60.7380 N.ar    1  UNL1       -0.2300
     25 C          44.5500   11.4410   61.1650 C.ar    1  UNL1        0.0466
     26 H          45.5736   11.4309   60.7906 H       1  UNL1        0.0845
     27 C          44.0570   10.5650   62.1370 C.ar    1  UNL1        0.0247
     28 H          44.6418    9.7826   62.6206 H       1  UNL1        0.0825
     29 C          41.7820   10.1760   63.3410 C.3     1  UNL1        0.0137
     30 H          41.0980   10.9207   63.7481 H       1  UNL1        0.0456
     31 H          41.2128    9.4104   62.8137 H       1  UNL1        0.0456
     32 H          42.3428    9.7154   64.1543 H       1  UNL1        0.0456
     33 N          40.3410   17.4110   64.9280 N.pl3   1  UNL1       -0.3573
     34 H          40.9176   17.4546   65.7804 H       1  UNL1        0.1423
     35 H          39.6874   18.1762   64.7086 H       1  UNL1        0.1423
@<TRIPOS>BOND
     1     1     2   ar
     2     1     7   ar
     3     2     4   ar
     4     2     3    1
     5     4     6   ar
     6     4     5    1
     7     6     7   ar
     8     7     8    1
     9     8    10   am
    10     8     9    1
    11    10    11    2
    12    10    13    1
    13    12    13   ar
    14    12    19   ar
    15    12    33    1
    16    13    14   ar
    17    14    16   ar
    18    14    15    1
    19    16    17   ar
    20    16    21    1
    21    17    18    1
    22    17    19   ar
    23    19    20    1
    24    21    23    1
    25    22    23   ar
    26    22    27   ar
    27    22    29    1
    28    23    24   ar
    29    24    25   ar
    30    25    27   ar
    31    25    26    1
    32    27    28    1
    33    29    30    1
    34    29    31    1
    35    29    32    1
    36    33    34    1
    37    33    35    1
