@<TRIPOS>MOLECULE
LIGAND
 52 53 0 0 0
SMALL
GASTEIGER

@<TRIPOS>ATOM
      1 C          33.9140   -9.4170   64.8000 C.ar    1  UNL1       -0.0377
      2 H          34.7666   -8.7684   64.5990 H       1  UNL1        0.0637
      3 C          32.6210   -9.0360   64.3580 C.ar    1  UNL1        0.0577
      4 C          31.5040   -9.8770   64.6320 C.ar    1  UNL1        0.0499
      5 C          31.7220  -11.0950   65.3350 C.ar    1  UNL1       -0.0249
      6 H          30.8779  -11.7503   65.5496 H       1  UNL1        0.0645
      7 C          33.0130  -11.4650   65.7570 C.ar    1  UNL1        0.0650
      8 C          34.1040  -10.6170   65.4910 C.ar    1  UNL1       -0.0458
      9 H          35.1027  -10.8975   65.8256 H       1  UNL1        0.0626
     10 C          33.2040  -12.7410   66.4500 C.2     1  UNL1        0.3866
     11 O          32.3210  -13.7140   66.1440 O.co2   1  UNL1       -0.2406
     12 O          34.1010  -12.9090   67.1950 O.co2   1  UNL1       -0.2406
     13 N          30.2750   -9.4810   64.1950 N.pl3   1  UNL1       -0.3395
     14 H          30.2120   -8.5518   63.7550 H       1  UNL1        0.1464
     15 C          29.0320  -10.2580   64.2940 C.3     1  UNL1        0.0202
     16 H          29.1463  -11.0468   65.0480 H       1  UNL1        0.0497
     17 C          28.7160  -10.8760   62.9100 C.3     1  UNL1       -0.0374
     18 H          29.6183  -10.8634   62.2778 H       1  UNL1        0.0280
     19 H          27.9552  -10.3046   62.3580 H       1  UNL1        0.0280
     20 C          27.9150   -9.3170   64.8210 C.3     1  UNL1       -0.0374
     21 H          28.2057   -8.9492   65.8220 H       1  UNL1        0.0280
     22 H          27.0046   -9.9254   64.9703 H       1  UNL1        0.0280
     23 C          28.2790  -12.3520   62.9670 C.3     1  UNL1       -0.0636
     24 H          28.0879  -12.7532   61.9588 H       1  UNL1        0.0230
     25 H          29.0604  -12.9755   63.4350 H       1  UNL1        0.0230
     26 H          27.3574  -12.4782   63.5589 H       1  UNL1        0.0230
     27 C          27.5770   -8.1140   63.9220 C.3     1  UNL1       -0.0636
     28 H          26.8048   -7.4912   64.4055 H       1  UNL1        0.0230
     29 H          28.4542   -7.4685   63.7593 H       1  UNL1        0.0230
     30 H          27.1788   -8.4145   62.9419 H       1  UNL1        0.0230
     31 N          32.4790   -7.8500   63.6470 N.am    1  UNL1       -0.2632
     32 C          33.0240   -7.6000   62.2720 C.3     1  UNL1        0.0502
     33 C          32.0750   -6.4670   61.7890 C.3     1  UNL1       -0.0224
     34 H          31.1887   -6.8737   61.2799 H       1  UNL1        0.0291
     35 H          32.5628   -5.7995   61.0600 H       1  UNL1        0.0291
     36 C          31.5810   -5.7250   63.0360 C.3     1  UNL1        0.0265
     37 H          30.5205   -5.4532   63.0615 H       1  UNL1        0.0359
     38 H          32.2020   -4.8717   63.3425 H       1  UNL1        0.0359
     39 C          31.7640   -6.7950   64.0770 C.2     1  UNL1        0.2204
     40 O          31.2610   -6.6900   65.2020 O.2     1  UNL1       -0.2752
     41 C          34.5440   -7.1480   62.2720 C.3     1  UNL1        0.0642
     42 H          34.7596   -6.6278   61.3223 H       1  UNL1        0.0578
     43 H          35.2201   -8.0192   62.3224 H       1  UNL1        0.0578
     44 O          34.8240   -6.2980   63.3880 O.3     1  UNL1       -0.3930
     45 H          35.4682   -5.5490   63.0966 H       1  UNL1        0.2095
     46 C          32.8670   -8.8250   61.3170 C.3     1  UNL1       -0.0717
     47 H          33.4914   -9.6652   61.6559 H       1  UNL1        0.0071
     48 H          33.2307   -8.5210   60.3235 H       1  UNL1        0.0071
     49 N          31.5340   -9.3880   61.1180 N.3     1  UNL1        0.3796
     50 H          31.5608  -10.2014   60.5155 H       1  UNL1       -0.0900
     51 H          31.1527   -9.7252   62.0022 H       1  UNL1       -0.0900
     52 H          30.8561   -8.7481   60.7331 H       1  UNL1       -0.0900
@<TRIPOS>BOND
     1     1     3   ar
     2     1     8   ar
     3     1     2    1
     4     3     4   ar
     5     3    31    1
     6     4     5   ar
     7     4    13    1
     8     5     7   ar
     9     5     6    1
    10     7     8   ar
    11     7    10    1
    12     8     9    1
    13    10    11   ar
    14    10    12   ar
    15    13    15    1
    16    13    14    1
    17    15    17    1
    18    15    20    1
    19    15    16    1
    20    17    23    1
    21    17    18    1
    22    17    19    1
    23    20    27    1
    24    20    21    1
    25    20    22    1
    26    23    24    1
    27    23    25    1
    28    23    26    1
    29    27    28    1
    30    27    29    1
    31    27    30    1
    32    31    32    1
    33    31    39   am
    34    32    33    1
    35    32    41    1
    36    32    46    1
    37    33    36    1
    38    33    34    1
    39    33    35    1
    40    36    39    1
    41    36    37    1
    42    36    38    1
    43    39    40    2
    44    41    44    1
    45    41    42    1
    46    41    43    1
    47    44    45    1
    48    46    49    1
    49    46    47    1
    50    46    48    1
    51    49    50    1
    52    49    51    1
    53    49    52    1
