@<TRIPOS>MOLECULE
LIGAND
 21 22 0 0 0
SMALL
GASTEIGER

@<TRIPOS>ATOM
      1 O          43.2690   77.8320   53.3530 O.2     1  PRO1       -0.2738
      2 C          43.6110   76.9400   52.5780 C.2     1  PRO1        0.2340
      3 CA         42.6270   76.4090   51.5360 C.3     1  PRO1        0.1022
      4 HA         42.7639   76.9273   50.5694 H       1  PRO1        0.0597
      5 CB         41.1860   76.4810   52.0440 C.3     1  PRO1       -0.0243
      6 HB1        40.7818   77.5021   52.0532 H       1  PRO1        0.0288
      7 HB2        41.1222   76.0847   53.0743 H       1  PRO1        0.0288
      8 CG         40.5150   75.4970   51.0830 C.3     1  PRO1       -0.0350
      9 HG1        40.5119   75.9351   50.0673 H       1  PRO1        0.0281
     10 HG2        39.4724   75.2329   51.3144 H       1  PRO1        0.0281
     11 CD         41.4670   74.2990   51.1510 C.3     1  PRO1        0.0156
     12 HD1        41.4979   73.6539   50.2616 H       1  PRO1        0.0465
     13 HD2        41.2563   73.6648   52.0286 H       1  PRO1        0.0465
     14 N          42.7800   74.9600   51.3370 N.am    1  PRO1       -0.2886
     15 C          44.0560   74.3900   51.4430 C.2     2  GLY2        0.2334
     16 O          44.1980   73.1760   51.2990 O.2     2  GLY2       -0.2739
     17 CA         45.2760   75.2600   51.7590 C.3     2  GLY2        0.0884
     18 HA1        45.6941   75.6455   50.8131 H       2  GLY2        0.0558
     19 HA2        46.0080   74.6040   52.2484 H       2  GLY2        0.0558
     20 N          44.8940   76.3810   52.6500 N.am    2  GLY2       -0.3052
     21 H          45.5762   76.7517   53.3268 H       2  GLY2        0.1492
@<TRIPOS>BOND
     1     1     2    2
     2     2     3    1
     3     2    20   am
     4     3     5    1
     5     3    14    1
     6     3     4    1
     7     5     8    1
     8     5     6    1
     9     5     7    1
    10     8    11    1
    11     8     9    1
    12     8    10    1
    13    11    14    1
    14    11    12    1
    15    11    13    1
    16    14    15   am
    17    15    16    2
    18    15    17    1
    19    17    20    1
    20    17    18    1
    21    17    19    1
    22    20    21    1
