@<TRIPOS>MOLECULE
LIGAND
 31 32 0 0 0
SMALL
GASTEIGER

@<TRIPOS>ATOM
      1 O5*        37.2690   31.6360   58.1120 O.3     1    T1       -0.3924
      2 H5*        38.1909   32.0195   58.3649 H       1    T1        0.2095
      3 C5*        37.1280   30.3560   58.6630 C.3     1    T1        0.0729
      4 H5*1       37.4600   30.3233   59.7166 H       1    T1        0.0584
      5 H5*2       37.7408   29.6311   58.0937 H       1    T1        0.0584
      6 C4*        35.6320   29.8770   58.6180 C.3     1    T1        0.1100
      7 H4*        35.7111   28.7893   58.7766 H       1    T1        0.0646
      8 O4*        34.7340   30.2810   59.6640 O.3     1    T1       -0.3483
      9 C3*        34.7020   30.1190   57.3770 C.3     1    T1        0.0876
     10 H3*        35.3070   30.3024   56.4722 H       1    T1        0.0621
     11 O3*        33.8010   28.9990   56.9350 O.3     1    T1       -0.3890
     12 H3*        32.8719   29.3771   56.7010 H       1    T1        0.2099
     13 C2*        34.1020   31.4820   57.8370 C.3     1    T1        0.0214
     14 H2*1       33.2423   31.8001   57.2254 H       1    T1        0.0335
     15 H2*2       34.8622   32.2650   57.6900 H       1    T1        0.0335
     16 C1*        33.7730   31.2300   59.2840 C.3     1    T1        0.1422
     17 H1*        32.7898   30.7445   59.3549 H       1    T1        0.0840
     18 N1         33.9110   32.3630   60.2420 N.ar    1    T1       -0.2737
     19 C2         32.8850   32.6610   61.0910 C.ar    1    T1        0.3313
     20 O2         31.8350   31.9430   61.0400 O.2     1    T1       -0.2464
     21 N3         32.9480   33.6780   61.9640 N.ar    1    T1       -0.2747
     22 H3         32.1515   33.8713   62.5878 H       1    T1        0.1734
     23 C4         34.0410   34.4380   62.0240 C.ar    1    T1        0.2568
     24 O4         34.0740   35.4320   62.8840 O.2     1    T1       -0.2674
     25 C5         35.1370   34.1690   61.1680 C.ar    1    T1        0.0302
     26 C5M        36.3980   35.0130   61.2080 C.3     1    T1       -0.0332
     27 H5M1       37.1613   34.6680   60.4934 H       1    T1        0.0280
     28 H5M2       36.1744   36.0655   60.9697 H       1    T1        0.0280
     29 H5M3       36.8529   34.9931   62.2117 H       1    T1        0.0280
     30 C6         35.0470   33.0990   60.2610 C.ar    1    T1        0.0199
     31 H6         35.8729   32.8672   59.5884 H       1    T1        0.0816
@<TRIPOS>BOND
     1     1     3    1
     2     1     2    1
     3     3     6    1
     4     3     4    1
     5     3     5    1
     6     6     8    1
     7     6     9    1
     8     6     7    1
     9     8    16    1
    10     9    11    1
    11     9    13    1
    12     9    10    1
    13    11    12    1
    14    13    16    1
    15    13    14    1
    16    13    15    1
    17    16    18    1
    18    16    17    1
    19    18    19   ar
    20    18    30   ar
    21    19    20    2
    22    19    21   ar
    23    21    23   ar
    24    21    22    1
    25    23    24    2
    26    23    25   ar
    27    25    26    1
    28    25    30   ar
    29    26    27    1
    30    26    28    1
    31    26    29    1
    32    30    31    1
