@<TRIPOS>MOLECULE
LIGAND
 24 24 0 0 0
SMALL
GASTEIGER

@<TRIPOS>ATOM
      1 N           7.2940   27.6690   15.0320 N.3     1  TYR1        0.3873
      2 H1          8.2552   27.7285   14.7608 H       1  TYR1       -0.0889
      3 H2          7.0044   26.7050   15.0164 H       1  TYR1       -0.0889
      4 H3          6.6686   28.0851   14.3331 H       1  TYR1       -0.0889
      5 CA          6.8540   28.3310   16.2960 C.3     1  TYR1        0.0245
      6 HA          7.0760   27.6489   17.1313 H       1  TYR1        0.0201
      7 C           5.3540   28.5940   16.2400 C.2     1  TYR1        0.3423
      8 O           4.7930   29.0130   17.2730 O.co2   1  TYR1       -0.2482
      9 CB          7.5920   29.6610   16.4880 C.3     1  TYR1       -0.0306
     10 HB1         7.2755   30.0732   17.4612 H       1  TYR1        0.0302
     11 HB2         7.2619   30.3932   15.7316 H       1  TYR1        0.0302
     12 CG          9.0970   29.5370   16.4750 C.ar    1  TYR1       -0.0482
     13 CD1         9.7530   28.6950   17.3710 C.ar    1  TYR1       -0.0552
     14 CD2         9.8670   30.2590   15.5640 C.ar    1  TYR1       -0.0552
     15 CE1        11.1390   28.5750   17.3610 C.ar    1  TYR1       -0.0199
     16 CE2        11.2520   30.1450   15.5470 C.ar    1  TYR1       -0.0199
     17 CZ         11.8810   29.3030   16.4470 C.ar    1  TYR1        0.1169
     18 OH         13.2570   29.1950   16.4370 O.3     1  TYR1       -0.5068
     19 HH         13.5238   28.2167   16.2565 H       1  TYR1        0.2921
     20 OXT         4.7690   28.3980   15.1540 O.co2   1  TYR1       -0.2482
     21 HD1         9.1705   28.1209   18.0916 H       1  TYR1        0.0621
     22 HD2         9.3748   30.9235   14.8538 H       1  TYR1        0.0621
     23 HE1        11.6373   27.9120   18.0683 H       1  TYR1        0.0654
     24 HE2        11.8398   30.7160   14.8283 H       1  TYR1        0.0654
@<TRIPOS>BOND
     1     1     5    1
     2     1     2    1
     3     1     3    1
     4     1     4    1
     5     5     7    1
     6     5     9    1
     7     5     6    1
     8     7     8   ar
     9     7    20   ar
    10     9    12    1
    11     9    10    1
    12     9    11    1
    13    12    13   ar
    14    12    14   ar
    15    13    15   ar
    16    14    16   ar
    17    15    17   ar
    18    16    17   ar
    19    17    18    1
    20    18    19    1
    21    13    21    1
    22    14    22    1
    23    15    23    1
    24    16    24    1
