@<TRIPOS>MOLECULE
LIGAND
 38 39 0 0 0
SMALL
GASTEIGER

@<TRIPOS>ATOM
      1 O          50.7850    2.2010  -10.0540 O.2     1  UNL1       -0.2265
      2 C          49.7650    2.4050   -9.3980 C.2     1  UNL1        0.4013
      3 O          48.9710    1.2920   -8.9670 O.3     1  UNL1       -0.4377
      4 N          49.5030    3.4380   -8.5800 N.am    1  UNL1       -0.2770
      5 H          49.9909    4.3437   -8.6297 H       1  UNL1        0.1522
      6 C          48.4580    3.1390   -7.6190 C.3     1  UNL1        0.0587
      7 C          47.9970    1.7310   -8.0280 C.3     1  UNL1        0.1527
      8 C          48.0490    0.7240   -6.8730 C.3     1  UNL1       -0.0190
      9 H          47.3752    0.9917   -6.0437 H       1  UNL1        0.0272
     10 H          47.7605   -0.2815   -7.2251 H       1  UNL1        0.0272
     11 H          49.0705    0.6524   -6.4641 H       1  UNL1        0.0272
     12 C          46.6100    1.7270   -8.6360 C.ar    1  UNL1        0.0008
     13 C          45.5100    2.1740   -7.8950 C.ar    1  UNL1       -0.0511
     14 H          45.6580    2.5376   -6.8781 H       1  UNL1        0.0623
     15 C          44.2280    2.1600   -8.4410 C.ar    1  UNL1       -0.0159
     16 H          43.3845    2.5390   -7.8640 H       1  UNL1        0.0655
     17 C          44.0260    1.6590   -9.7300 C.ar    1  UNL1        0.1615
     18 O          42.7850    1.6190  -10.3080 O.3     1  UNL1       -0.4915
     19 C          41.5840    2.1170   -9.7040 C.3     1  UNL1        0.0790
     20 H          40.7880    1.9414  -10.4394 H       1  UNL1        0.0660
     21 H          41.3449    1.5790   -8.7752 H       1  UNL1        0.0660
     22 H          41.6528    3.1942   -9.4941 H       1  UNL1        0.0660
     23 C          45.1160    1.2070  -10.4870 C.ar    1  UNL1        0.1623
     24 C          46.3930    1.2410   -9.9260 C.ar    1  UNL1       -0.0093
     25 H          47.2405    0.8797  -10.5086 H       1  UNL1        0.0659
     26 O          44.8880    0.7470  -11.7810 O.3     1  UNL1       -0.4883
     27 C          45.9050    0.1950  -12.6180 C.3     1  UNL1        0.0895
     28 H          46.2260   -0.7796  -12.2124 H       1  UNL1        0.0696
     29 H          46.8004    0.8397  -12.6350 H       1  UNL1        0.0696
     30 C          45.3630    0.0630  -14.0400 C.3     1  UNL1       -0.0215
     31 H          44.4298   -0.5268  -14.0276 H       1  UNL1        0.0295
     32 H          46.0796   -0.4786  -14.6808 H       1  UNL1        0.0295
     33 C          45.1150    1.4450  -14.5960 C.3     1  UNL1       -0.0622
     34 H          44.7529    1.4132  -15.6368 H       1  UNL1        0.0231
     35 H          44.3567    1.9903  -14.0097 H       1  UNL1        0.0231
     36 H          46.0401    2.0453  -14.5925 H       1  UNL1        0.0231
     37 H          47.6835    3.9224   -7.6821 H       1  UNL1        0.0506
     38 H          48.8923    3.1907   -6.6025 H       1  UNL1        0.0506
@<TRIPOS>BOND
     1     1     2    2
     2     2     3    1
     3     2     4   am
     4     3     7    1
     5     4     6    1
     6     4     5    1
     7     6     7    1
     8     7     8    1
     9     7    12    1
    10     8     9    1
    11     8    10    1
    12     8    11    1
    13    12    13   ar
    14    12    24   ar
    15    13    15   ar
    16    13    14    1
    17    15    17   ar
    18    15    16    1
    19    17    18    1
    20    17    23   ar
    21    18    19    1
    22    19    20    1
    23    19    21    1
    24    19    22    1
    25    23    24   ar
    26    23    26    1
    27    24    25    1
    28    26    27    1
    29    27    30    1
    30    27    28    1
    31    27    29    1
    32    30    33    1
    33    30    31    1
    34    30    32    1
    35    33    34    1
    36    33    35    1
    37    33    36    1
    38     6    37    1
    39     6    38    1
