@<TRIPOS>MOLECULE
LIGAND
 40 42 0 0 0
SMALL
GASTEIGER

@<TRIPOS>ATOM
      1 O          22.6470   20.9330   95.3140 O.2     1  UNL1       -0.2698
      2 C          25.6930   16.3610   99.7960 C.3     1  UNL1       -0.0468
      3 H          25.9793   16.2062  100.8422 H       1  UNL1        0.0269
      4 H          24.8895   15.6802   99.5022 H       1  UNL1        0.0269
      5 C          26.8180   16.6540   98.7740 C.3     1  UNL1       -0.0468
      6 H          26.7486   16.2182   97.7750 H       1  UNL1        0.0269
      7 H          27.8415   16.7332   99.1522 H       1  UNL1        0.0269
      8 C          25.8470   17.6630   99.2810 C.3     1  UNL1       -0.0068
      9 H          26.4222   18.1823  100.0790 H       1  UNL1        0.0334
     10 C          21.9140   21.5700   96.0870 C.2     1  UNL1        0.2484
     11 C          22.1420   21.4560   97.5460 C.ar    1  UNL1        0.0407
     12 C          21.4590   22.2270   98.4930 C.ar    1  UNL1       -0.0459
     13 H          20.7172   22.9563   98.1674 H       1  UNL1        0.0626
     14 C          21.7260   22.0640   99.8580 C.ar    1  UNL1       -0.0154
     15 H          21.1904   22.6740  100.5854 H       1  UNL1        0.0655
     16 C          22.6740   21.1260  100.3060 C.ar    1  UNL1        0.1683
     17 O          22.9880   20.9160  101.6330 O.3     1  UNL1       -0.4305
     18 C          22.5860   21.7950  102.6720 C.3     1  UNL1        0.3894
     19 H          23.0573   21.4615  103.6077 H       1  UNL1        0.1520
     20 F          21.2650   21.7020  102.7720 F       1  UNL1       -0.1663
     21 F          22.9860   23.0410  102.3750 F       1  UNL1       -0.1663
     22 C          23.3440   20.3430   99.3700 C.ar    1  UNL1        0.1628
     23 O          24.2750   19.4250   99.8160 O.3     1  UNL1       -0.4880
     24 C          25.0500   18.8290   98.7750 C.3     1  UNL1        0.0926
     25 H          24.4038   18.4273   97.9816 H       1  UNL1        0.0699
     26 H          25.7395   19.5677   98.3285 H       1  UNL1        0.0699
     27 C          23.0780   20.5180   97.9980 C.ar    1  UNL1       -0.0042
     28 H          23.6138   19.9084   97.2704 H       1  UNL1        0.0663
     29 N          20.9540   22.3430   95.5880 N.am    1  UNL1       -0.2790
     30 H          20.3669   22.8898   96.2339 H       1  UNL1        0.1552
     31 C          20.7150   22.4370   94.1990 C.ar    1  UNL1        0.0736
     32 C          20.8810   23.6610   93.5280 C.ar    1  UNL1        0.0816
     33 CL         21.4430   25.0540   94.3920 Cl      1  UNL1       -0.0800
     34 C          20.6110   23.7170   92.1620 C.ar    1  UNL1        0.0478
     35 H          20.7399   24.6604   91.6315 H       1  UNL1        0.0845
     36 N          20.1950   22.6330   91.4840 N.ar    1  UNL1       -0.2602
     37 C          20.0260   21.4460   92.0890 C.ar    1  UNL1        0.0478
     38 H          19.7023   20.5799   91.5117 H       1  UNL1        0.0845
     39 C          20.2670   21.3230   93.4660 C.ar    1  UNL1        0.0816
     40 CL         19.9900   19.7940   94.2420 Cl      1  UNL1       -0.0800
@<TRIPOS>BOND
     1     1    10    2
     2     2     5    1
     3     2     8    1
     4     2     3    1
     5     2     4    1
     6     5     8    1
     7     5     6    1
     8     5     7    1
     9     8    24    1
    10     8     9    1
    11    10    11    1
    12    10    29   am
    13    11    12   ar
    14    11    27   ar
    15    12    14   ar
    16    12    13    1
    17    14    16   ar
    18    14    15    1
    19    16    17    1
    20    16    22   ar
    21    17    18    1
    22    18    20    1
    23    18    21    1
    24    18    19    1
    25    22    23    1
    26    22    27   ar
    27    23    24    1
    28    24    25    1
    29    24    26    1
    30    27    28    1
    31    29    31    1
    32    29    30    1
    33    31    32   ar
    34    31    39   ar
    35    32    33    1
    36    32    34   ar
    37    34    36   ar
    38    34    35    1
    39    36    37   ar
    40    37    39   ar
    41    37    38    1
    42    39    40    1
