@<TRIPOS>MOLECULE
LIGAND
 48 53 0 0 0
SMALL
GASTEIGER

@<TRIPOS>ATOM
      1 C          42.8220   37.8770   10.1470 C.ar    1  UNL1       -0.0598
      2 C          42.9660   38.2730   11.5040 C.ar    1  UNL1       -0.0611
      3 C          43.8200   37.6730   12.4150 C.ar    1  UNL1       -0.0523
      4 C          44.5670   36.6040   11.8900 C.ar    1  UNL1        0.0032
      5 C          45.5670   35.7220   12.5090 C.ar    1  UNL1       -0.0147
      6 C          45.9500   34.8780   11.5180 C.ar    1  UNL1        0.0456
      7 N          45.3070   35.1450   10.3960 N.ar    1  UNL1       -0.3560
      8 C          44.4430   36.1950   10.5540 C.ar    1  UNL1        0.0470
      9 C          43.5880   36.7990    9.6480 C.ar    1  UNL1       -0.0378
     10 C          46.9640   33.8340   11.7720 C.3     1  UNL1        0.0925
     11 N          47.2580   33.5750   13.1710 N.am    1  UNL1       -0.2758
     12 C          48.1380   32.5760   13.3970 C.2     1  UNL1        0.2344
     13 O          48.6650   31.9330   12.5250 O.2     1  UNL1       -0.2738
     14 C          48.4930   32.2400   14.7760 C.3     1  UNL1        0.0910
     15 N          48.1260   33.1800   15.8350 N.am    1  UNL1       -0.2942
     16 C          47.2490   34.1540   15.6280 C.2     1  UNL1        0.2366
     17 O          46.8900   34.9790   16.4840 O.2     1  UNL1       -0.2735
     18 C          46.6300   34.3090   14.2750 C.3     1  UNL1        0.1074
     19 C          46.0970   35.7020   13.9150 C.3     1  UNL1        0.0019
     20 C          48.7160   33.0530   17.1550 C.3     1  UNL1        0.0037
     21 C          48.2060   34.2980   10.9340 C.ar    1  UNL1       -0.0175
     22 C          48.7360   33.4820    9.8960 C.ar    1  UNL1       -0.0527
     23 C          49.8220   33.8410    9.1280 C.ar    1  UNL1       -0.0158
     24 C          50.4030   35.0570    9.4070 C.ar    1  UNL1        0.1662
     25 O          51.4800   35.6170    8.7840 O.3     1  UNL1       -0.4526
     26 C          51.8080   36.6900    9.6600 C.3     1  UNL1        0.2332
     27 O          50.6580   37.0270   10.4910 O.3     1  UNL1       -0.4526
     28 C          49.9300   35.8680   10.3900 C.ar    1  UNL1        0.1666
     29 C          48.8280   35.5130   11.1710 C.ar    1  UNL1       -0.0108
     30 H          42.1155   38.4314    9.4977 H       1  UNL1        0.0618
     31 H          42.3455   39.1317   11.8418 H       1  UNL1        0.0618
     32 H          43.9030   38.0116   13.4635 H       1  UNL1        0.0624
     33 H          45.4560   34.6878    9.4884 H       1  UNL1        0.1657
     34 H          43.5218   36.4330    8.6100 H       1  UNL1        0.0638
     35 H          46.6099   32.8905   11.3208 H       1  UNL1        0.0616
     36 H          45.6675   33.7615   14.4308 H       1  UNL1        0.0600
     37 H          45.2993   35.9675   14.6269 H       1  UNL1        0.0337
     38 H          46.8682   36.4868   14.0164 H       1  UNL1        0.0337
     39 H          49.6706   33.6023   17.2240 H       1  UNL1        0.0429
     40 H          48.0361   33.4239   17.9334 H       1  UNL1        0.0429
     41 H          48.9185   31.9925   17.3724 H       1  UNL1        0.0429
     42 H          48.2653   32.4911    9.7115 H       1  UNL1        0.0622
     43 H          50.2011   33.1876    8.3269 H       1  UNL1        0.0655
     44 H          52.1140   37.5771    9.0855 H       1  UNL1        0.1166
     45 H          52.6445   36.3957   10.3199 H       1  UNL1        0.1166
     46 H          48.4838   36.2072   11.9646 H       1  UNL1        0.0659
     47 H          49.5877   32.0895   14.7865 H       1  UNL1        0.0560
     48 H          48.0624   31.2423   14.9919 H       1  UNL1        0.0560
@<TRIPOS>BOND
     1     1     2   ar
     2     1     9   ar
     3     2     3   ar
     4     3     4   ar
     5     4     5   ar
     6     4     8   ar
     7     5     6   ar
     8     5    19    1
     9     6     7   ar
    10     6    10    1
    11     7     8   ar
    12     8     9   ar
    13    10    11    1
    14    10    21    1
    15    11    12   am
    16    11    18    1
    17    12    13    2
    18    12    14    1
    19    14    15    1
    20    15    16   am
    21    15    20    1
    22    16    17    2
    23    16    18    1
    24    18    19    1
    25    21    22   ar
    26    21    29   ar
    27    22    23   ar
    28    23    24   ar
    29    24    25    1
    30    24    28   ar
    31    25    26    1
    32    26    27    1
    33    27    28    1
    34    28    29   ar
    35     1    30    1
    36     2    31    1
    37     3    32    1
    38     7    33    1
    39     9    34    1
    40    10    35    1
    41    18    36    1
    42    19    37    1
    43    19    38    1
    44    20    39    1
    45    20    40    1
    46    20    41    1
    47    22    42    1
    48    23    43    1
    49    26    44    1
    50    26    45    1
    51    29    46    1
    52    14    47    1
    53    14    48    1
