@<TRIPOS>MOLECULE
LIGAND
 59 63 0 0 0
SMALL
GASTEIGER

@<TRIPOS>ATOM
      1 O          -0.0370   31.0440   21.3050 O.2     1  UNL1       -0.1530
      2 S          -0.6050   29.7780   21.5610 S.O2    1  UNL1        0.0585
      3 O          -0.4770   29.4350   22.9410 O.2     1  UNL1       -0.1530
      4 N          -2.1000   29.8570   21.0210 N.3     1  UNL1       -0.1897
      5 H          -2.9056   29.7258   21.6492 H       1  UNL1        0.1480
      6 C          -2.2810   30.1240   19.5940 C.3     1  UNL1        0.0203
      7 H          -2.0360   29.2056   19.0309 H       1  UNL1        0.0444
      8 H          -1.5509   30.8896   19.2924 H       1  UNL1        0.0444
      9 C          -3.6970   30.5820   19.2470 C.3     1  UNL1       -0.0268
     10 H          -4.5101   29.9893   19.6760 H       1  UNL1        0.0314
     11 C          -3.8610   31.1220   17.8270 C.3     1  UNL1       -0.0487
     12 H          -4.7876   30.9291   17.2810 H       1  UNL1        0.0268
     13 H          -2.9777   31.1378   17.1822 H       1  UNL1        0.0268
     14 C          -3.9060   32.0700   19.0180 C.3     1  UNL1       -0.0487
     15 H          -3.0602   32.7401   19.1956 H       1  UNL1        0.0268
     16 H          -4.8647   32.5193   19.2899 H       1  UNL1        0.0268
     17 C           0.2570   28.6170   20.7720 C.ar    1  UNL1        0.1072
     18 C           0.0050   27.2850   21.0760 C.ar    1  UNL1       -0.0318
     19 H          -0.7756   27.0346   21.7944 H       1  UNL1        0.0638
     20 C           0.7400   26.2640   20.4720 C.ar    1  UNL1       -0.0163
     21 H           0.5473   25.2275   20.7489 H       1  UNL1        0.0655
     22 C           1.2700   28.8870   19.8200 C.ar    1  UNL1       -0.0105
     23 H           1.4922   29.9258   19.5760 H       1  UNL1        0.0657
     24 C           2.0060   27.8680   19.1720 C.ar    1  UNL1        0.0787
     25 C           1.7270   26.5530   19.5100 C.ar    1  UNL1        0.1413
     26 O           2.4440   25.5730   18.8760 O.3     1  UNL1       -0.4933
     27 C           2.2720   24.1640   19.0970 C.3     1  UNL1        0.0789
     28 H           2.9897   23.6678   18.4307 H       1  UNL1        0.0660
     29 H           2.4937   23.8882   20.1384 H       1  UNL1        0.0660
     30 H           1.2538   23.8358   18.8426 H       1  UNL1        0.0660
     31 N           2.9390   28.1000   18.1570 N.pl3   1  UNL1       -0.2657
     32 H           3.7441   27.4609   18.0919 H       1  UNL1        0.1566
     33 C           2.8590   29.1080   17.2510 C.ar    1  UNL1        0.2924
     34 O           1.8350   29.9810   17.2650 O.2     1  UNL1       -0.4244
     35 C           2.1640   30.9010   16.3250 C.ar    1  UNL1        0.1569
     36 C           3.3500   30.5130   15.7030 C.ar    1  UNL1        0.0756
     37 H           3.8296   31.0300   14.8719 H       1  UNL1        0.0869
     38 N           3.8110   29.3800   16.3060 N.ar    1  UNL1       -0.2031
     39 C           1.2040   31.9670   16.0500 C.ar    1  UNL1        0.0195
     40 C           1.1520   32.5770   14.7970 C.ar    1  UNL1       -0.0433
     41 H           1.8610   32.2902   14.0204 H       1  UNL1        0.0631
     42 C           0.1910   33.5550   14.5390 C.ar    1  UNL1       -0.0158
     43 C          -0.7690   33.8790   15.5200 C.ar    1  UNL1       -0.0539
     44 H          -1.5166   34.6493   15.3305 H       1  UNL1        0.0624
     45 C          -0.7460   33.1990   16.7340 C.ar    1  UNL1       -0.0605
     46 H          -1.5037   33.4199   17.4857 H       1  UNL1        0.0618
     47 C           0.2190   32.2500   17.0030 C.ar    1  UNL1       -0.0510
     48 H           0.2141   31.7216   17.9563 H       1  UNL1        0.0625
     49 C           0.1890   34.2330   13.2050 C.2     1  UNL1       -0.0019
     50 C           0.0020   35.6210   13.0930 C.2     1  UNL1        0.0093
     51 H          -0.1713   36.2068   13.9957 H       1  UNL1        0.0813
     52 N           0.0310   36.2500   11.8970 N.2     1  UNL1       -0.3664
     53 H          -0.0968   37.2710   11.8514 H       1  UNL1        0.1648
     54 C           0.2250   35.5520   10.7720 C.2     1  UNL1        0.0016
     55 H           0.2247   36.0646    9.8101 H       1  UNL1        0.0807
     56 C           0.4280   34.1700   10.8220 C.2     1  UNL1       -0.0452
     57 H           0.6165   33.6170    9.9018 H       1  UNL1        0.0632
     58 C           0.3910   33.4920   12.0440 C.2     1  UNL1       -0.0513
     59 H           0.5172   32.4102   12.0866 H       1  UNL1        0.0625
@<TRIPOS>BOND
     1     1     2    2
     2     2     3    2
     3     2     4    1
     4     2    17    1
     5     4     6    1
     6     4     5    1
     7     6     9    1
     8     6     7    1
     9     6     8    1
    10     9    11    1
    11     9    14    1
    12     9    10    1
    13    11    14    1
    14    11    12    1
    15    11    13    1
    16    14    15    1
    17    14    16    1
    18    17    18   ar
    19    17    22   ar
    20    18    20   ar
    21    18    19    1
    22    20    25   ar
    23    20    21    1
    24    22    24   ar
    25    22    23    1
    26    24    25   ar
    27    24    31    1
    28    25    26    1
    29    26    27    1
    30    27    28    1
    31    27    29    1
    32    27    30    1
    33    31    33    1
    34    31    32    1
    35    33    34   ar
    36    33    38   ar
    37    34    35   ar
    38    35    36   ar
    39    35    39    1
    40    36    38   ar
    41    36    37    1
    42    39    40   ar
    43    39    47   ar
    44    40    42   ar
    45    40    41    1
    46    42    43   ar
    47    42    49    1
    48    43    45   ar
    49    43    44    1
    50    45    47   ar
    51    45    46    1
    52    47    48    1
    53    49    50    1
    54    49    58    2
    55    50    52    2
    56    50    51    1
    57    52    54    1
    58    52    53    1
    59    54    56    2
    60    54    55    1
    61    56    58    1
    62    56    57    1
    63    58    59    1
