@<TRIPOS>MOLECULE
LIGAND
 67 69 0 0 0
SMALL
GASTEIGER

@<TRIPOS>ATOM
      1 O          11.7260   38.9400   27.7690 O.3     1  UNL1       -0.5059
      2 H          11.7931   39.9499   27.5778 H       1  UNL1        0.2922
      3 C          12.2260   38.6600   29.1430 C.ar    1  UNL1        0.1333
      4 C          11.5030   39.1320   30.2560 C.ar    1  UNL1        0.0016
      5 H          10.5835   39.6984   30.1082 H       1  UNL1        0.0673
      6 C          11.9720   38.8700   31.5710 C.ar    1  UNL1        0.0314
      7 N          11.2170   39.3730   32.6990 N.pl3   1  UNL1       -0.3292
      8 H          11.5383   39.1906   33.6604 H       1  UNL1        0.1471
      9 C           9.9900   40.1450   32.4640 C.3     1  UNL1        0.1274
     10 H           9.3877   39.7173   31.6531 H       1  UNL1        0.0646
     11 C           9.1220   40.2060   33.6840 C.2     1  UNL1        0.2569
     12 O           9.4600   39.6850   34.7550 O.2     1  UNL1       -0.2718
     13 N           7.9750   40.8520   33.5540 N.am    1  UNL1       -0.1837
     14 H           7.7481   41.2605   32.6361 H       1  UNL1        0.1766
     15 S           6.8740   41.0420   34.7960 S.O2    1  UNL1        0.0745
     16 O           6.6940   39.7880   35.4670 O.2     1  UNL1       -0.1499
     17 O           5.6430   41.5490   34.2790 O.2     1  UNL1       -0.1499
     18 C           7.6010   42.2020   35.8630 C.ar    1  UNL1        0.1103
     19 C           7.4210   42.1260   37.2710 C.ar    1  UNL1       -0.0350
     20 H           6.8185   41.3301   37.7087 H       1  UNL1        0.0637
     21 C           8.0430   43.1110   38.1080 C.ar    1  UNL1       -0.0582
     22 H           7.9130   43.0657   39.1893 H       1  UNL1        0.0619
     23 C           8.8330   44.1520   37.5280 C.ar    1  UNL1       -0.0409
     24 H           9.3024   44.8986   38.1686 H       1  UNL1        0.0636
     25 C           9.0090   44.2170   36.1150 C.ar    1  UNL1        0.0264
     26 N           9.7480   45.1880   35.5680 N.pl3   1  UNL1       -0.3579
     27 H           9.8705   45.2283   34.5461 H       1  UNL1        0.1423
     28 H          10.1946   45.8957   36.1686 H       1  UNL1        0.1423
     29 C           8.3940   43.2450   35.2870 C.ar    1  UNL1       -0.0144
     30 H           8.5256   43.2920   34.2060 H       1  UNL1        0.0655
     31 C          10.4210   41.6170   32.1940 C.ar    1  UNL1        0.0239
     32 C          10.0160   42.2660   30.9990 C.ar    1  UNL1        0.1704
     33 F           9.2580   41.6260   30.0960 F       1  UNL1       -0.2013
     34 C          10.4050   43.5880   30.7500 C.ar    1  UNL1        0.1593
     35 O           9.9820   44.2400   29.4940 O.3     1  UNL1       -0.4892
     36 C          10.6270   45.6530   29.3720 C.3     1  UNL1        0.0869
     37 H          11.7174   45.5400   29.4186 H       1  UNL1        0.0694
     38 H          10.2373   46.2787   30.1852 H       1  UNL1        0.0694
     39 C          10.2300   46.2620   28.0270 C.3     1  UNL1       -0.0307
     40 H          10.6566   47.2677   27.8880 H       1  UNL1        0.0262
     41 H          10.5792   45.6242   27.1996 H       1  UNL1        0.0262
     42 H           9.1334   46.3434   27.9553 H       1  UNL1        0.0262
     43 C          11.2030   44.2880   31.6810 C.ar    1  UNL1        0.0247
     44 H          11.5006   45.3159   31.4737 H       1  UNL1        0.0692
     45 C          11.6170   43.6680   32.8750 C.ar    1  UNL1        0.1245
     46 O          12.4600   44.4650   33.8020 O.3     1  UNL1       -0.4921
     47 C          12.9390   43.6620   35.0230 C.3     1  UNL1        0.0868
     48 H          13.3905   42.7259   34.6708 H       1  UNL1        0.0694
     49 H          12.0744   43.4583   35.6681 H       1  UNL1        0.0694
     50 C          13.9970   44.5050   35.7280 C.3     1  UNL1       -0.0307
     51 H          14.4113   44.0041   36.6166 H       1  UNL1        0.0262
     52 H          14.8281   44.7174   35.0363 H       1  UNL1        0.0262
     53 H          13.5673   45.4673   36.0498 H       1  UNL1        0.0262
     54 C          11.2340   42.3210   33.1480 C.ar    1  UNL1       -0.0115
     55 H          11.5537   41.8319   34.0682 H       1  UNL1        0.0658
     56 C          13.1640   38.1350   31.7720 C.ar    1  UNL1       -0.0398
     57 H          13.5178   37.9329   32.7830 H       1  UNL1        0.0636
     58 C          13.8970   37.6620   30.6540 C.ar    1  UNL1       -0.0417
     59 H          14.8167   37.0973   30.8066 H       1  UNL1        0.0628
     60 C          13.4380   37.9210   29.3410 C.ar    1  UNL1        0.1022
     61 C          14.2090   37.4230   28.1890 C.2     1  UNL1        0.2697
     62 N          15.3340   36.7390   28.3840 N.2     1  UNL1       -0.2883
     63 N          13.7820   37.6560   26.9580 N.pl3   1  UNL1       -0.2496
     64 H          14.3204   37.3082   26.1517 H       1  UNL1        0.2883
     65 H          12.9113   38.1850   26.8064 H       1  UNL1        0.2883
     66 H          15.8718   36.3915   27.5772 H       1  UNL1        0.3009
     67 H          15.6668   36.5573   29.3417 H       1  UNL1        0.3009
@<TRIPOS>BOND
     1     1     3    1
     2     1     2    1
     3     3     4   ar
     4     3    60   ar
     5     4     6   ar
     6     4     5    1
     7     6     7    1
     8     6    56   ar
     9     7     9    1
    10     7     8    1
    11     9    11    1
    12     9    31    1
    13     9    10    1
    14    11    12    2
    15    11    13   am
    16    13    15    1
    17    13    14    1
    18    15    16    2
    19    15    17    2
    20    15    18    1
    21    18    19   ar
    22    18    29   ar
    23    19    21   ar
    24    19    20    1
    25    21    23   ar
    26    21    22    1
    27    23    25   ar
    28    23    24    1
    29    25    26    1
    30    25    29   ar
    31    26    27    1
    32    26    28    1
    33    29    30    1
    34    31    32   ar
    35    31    54   ar
    36    32    33    1
    37    32    34   ar
    38    34    35    1
    39    34    43   ar
    40    35    36    1
    41    36    39    1
    42    36    37    1
    43    36    38    1
    44    39    40    1
    45    39    41    1
    46    39    42    1
    47    43    45   ar
    48    43    44    1
    49    45    46    1
    50    45    54   ar
    51    46    47    1
    52    47    50    1
    53    47    48    1
    54    47    49    1
    55    50    51    1
    56    50    52    1
    57    50    53    1
    58    54    55    1
    59    56    58   ar
    60    56    57    1
    61    58    60   ar
    62    58    59    1
    63    60    61    1
    64    61    62    2
    65    61    63    1
    66    63    64    1
    67    63    65    1
    68    62    66    1
    69    62    67    1
