@<TRIPOS>MOLECULE
LIGAND
 41 42 0 0 0
SMALL
GASTEIGER

@<TRIPOS>ATOM
      1 C           9.2270   20.0170   27.7680 C.ar    1  UNL1        0.1057
      2 C           8.2930   19.4750   28.7070 C.ar    1  UNL1       -0.0297
      3 H           7.7742   18.5409   28.4917 H       1  UNL1        0.0640
      4 C           8.0500   20.1670   29.9210 C.ar    1  UNL1       -0.0134
      5 C           8.7620   21.3710   30.1500 C.ar    1  UNL1        0.1264
      6 C           9.7370   21.8950   29.2310 C.ar    1  UNL1       -0.0243
      7 H          10.2957   22.8014   29.4643 H       1  UNL1        0.0647
      8 C           9.9470   21.2150   28.0390 C.ar    1  UNL1       -0.0326
      9 H          10.6624   21.5979   27.3113 H       1  UNL1        0.0638
     10 F           8.5230   22.0660   31.2740 F       1  UNL1       -0.2052
     11 C           7.0320   19.6580   30.9070 C.3     1  UNL1       -0.0369
     12 H           6.2579   20.4171   31.1048 H       1  UNL1        0.0278
     13 H           6.5307   18.7536   30.5335 H       1  UNL1        0.0278
     14 H           7.5046   19.4096   31.8713 H       1  UNL1        0.0278
     15 S           9.4700   19.1960   26.2210 S.O2    1  UNL1        0.0590
     16 N          10.4390   17.7900   26.5140 N.3     1  UNL1       -0.1805
     17 H           9.9973   16.8763   26.6900 H       1  UNL1        0.1488
     18 C          11.8990   17.9240   26.5070 C.3     1  UNL1        0.0771
     19 H          12.1813   18.6114   25.6973 H       1  UNL1        0.0548
     20 C          12.4690   18.4380   27.8460 C.2     1  UNL1        0.0745
     21 N          13.3900   19.4380   27.7230 N.am    1  UNL1       -0.3098
     22 H          13.6493   19.8030   26.7954 H       1  UNL1        0.1546
     23 O          13.9690   19.9520   28.8730 O.3     1  UNL1       -0.4230
     24 O          12.1600   17.9990   28.9170 O.2     1  UNL1       -0.5405
     25 O          10.3620   19.9620   25.4200 O.2     1  UNL1       -0.1530
     26 O           8.1790   18.7420   25.7310 O.2     1  UNL1       -0.1530
     27 C          12.6710   16.6260   26.2000 C.3     1  UNL1       -0.0140
     28 H          12.3638   15.8942   26.9728 H       1  UNL1        0.0322
     29 C          12.3710   15.9420   24.8220 C.3     1  UNL1       -0.0247
     30 H          12.6136   16.6629   24.0178 H       1  UNL1        0.0291
     31 H          11.2906   15.7378   24.7170 H       1  UNL1        0.0291
     32 C          13.1600   14.6640   24.5620 C.3     1  UNL1        0.0480
     33 H          13.0166   14.3060   23.5302 H       1  UNL1        0.0560
     34 H          12.8387   13.8533   25.2427 H       1  UNL1        0.0560
     35 O          14.5420   14.9270   24.7000 O.3     1  UNL1       -0.3797
     36 C          14.9420   15.4300   25.9930 C.3     1  UNL1        0.0480
     37 H          16.0312   15.5731   25.9317 H       1  UNL1        0.0560
     38 H          14.7429   14.6782   26.7785 H       1  UNL1        0.0560
     39 C          14.2100   16.7480   26.3050 C.3     1  UNL1       -0.0247
     40 H          14.5297   17.0879   27.3053 H       1  UNL1        0.0291
     41 H          14.5604   17.5116   25.5861 H       1  UNL1        0.0291
@<TRIPOS>BOND
     1     1     2   ar
     2     1     8   ar
     3     1    15    1
     4     2     4   ar
     5     2     3    1
     6     4     5   ar
     7     4    11    1
     8     5     6   ar
     9     5    10    1
    10     6     8   ar
    11     6     7    1
    12     8     9    1
    13    11    12    1
    14    11    13    1
    15    11    14    1
    16    15    16    1
    17    15    25    2
    18    15    26    2
    19    16    18    1
    20    16    17    1
    21    18    20    1
    22    18    27    1
    23    18    19    1
    24    20    21   am
    25    20    24    2
    26    21    23    1
    27    21    22    1
    28    27    29    1
    29    27    39    1
    30    27    28    1
    31    29    32    1
    32    29    30    1
    33    29    31    1
    34    32    35    1
    35    32    33    1
    36    32    34    1
    37    35    36    1
    38    36    39    1
    39    36    37    1
    40    36    38    1
    41    39    40    1
    42    39    41    1
