@<TRIPOS>MOLECULE
LIGAND
 38 41 0 0 0
SMALL
GASTEIGER

@<TRIPOS>ATOM
      1 O          22.9990   37.7950   40.6810 O.2     1  UNL1       -0.2882
      2 C          23.0680   37.9450   39.4470 C.2     1  UNL1        0.2108
      3 C          23.9040   37.2140   38.5620 C.ar    1  UNL1        0.0718
      4 C          25.0030   36.4870   39.0470 C.ar    1  UNL1       -0.0440
      5 H          25.1796   36.4179   40.1204 H       1  UNL1        0.0628
      6 C          25.8610   35.8590   38.1640 C.ar    1  UNL1       -0.0495
      7 C          27.0600   35.0770   38.6340 C.3     1  UNL1       -0.0397
      8 H          27.1635   35.1052   39.7279 H       1  UNL1        0.0278
      9 H          26.9796   34.0210   38.3292 H       1  UNL1        0.0278
     10 H          27.9855   35.4830   38.1950 H       1  UNL1        0.0278
     11 C          25.6730   35.9500   36.7440 C.ar    1  UNL1       -0.0547
     12 H          26.3620   35.4470   36.0655 H       1  UNL1        0.0622
     13 C          23.7310   37.3010   37.1470 C.ar    1  UNL1        0.1867
     14 C          24.5960   36.6910   36.2360 C.ar    1  UNL1       -0.0099
     15 H          24.4388   36.7879   35.1618 H       1  UNL1        0.0661
     16 C          22.3500   39.0850   38.8070 C.3     1  UNL1        0.2347
     17 C          21.8050   38.6580   37.4350 C.2     1  UNL1        0.3340
     18 N          22.6760   37.9730   36.5960 N.2     1  UNL1       -0.0419
     19 O          23.3890   40.1710   38.6920 O.3     1  UNL1       -0.3702
     20 H          24.3255   39.7677   38.8375 H       1  UNL1        0.2115
     21 C          21.0570   39.5530   39.5140 C.3     1  UNL1        0.0315
     22 H          21.2369   40.2955   40.3053 H       1  UNL1        0.0340
     23 H          20.5367   38.6978   39.9752 H       1  UNL1        0.0340
     24 C          20.2420   40.0990   38.3440 C.3     1  UNL1        0.0893
     25 H          20.4329   41.1820   38.2366 H       1  UNL1        0.0731
     26 H          19.1539   39.9745   38.4738 H       1  UNL1        0.0731
     27 N          20.7300   39.3780   37.1490 N.pl3   1  UNL1       -0.1875
     28 C          20.1270   39.6390   35.8890 C.ar    1  UNL1        0.1208
     29 C          20.1720   38.5840   34.9500 C.ar    1  UNL1       -0.0169
     30 H          20.6864   37.6583   35.2080 H       1  UNL1        0.0658
     31 C          19.5630   38.7090   33.6860 C.ar    1  UNL1       -0.0579
     32 H          19.6396   37.9131   32.9452 H       1  UNL1        0.0619
     33 C          18.8640   39.8730   33.4120 C.ar    1  UNL1       -0.0615
     34 H          18.3673   39.9812   32.4478 H       1  UNL1        0.0618
     35 C          18.7800   40.9220   34.3520 C.ar    1  UNL1       -0.0579
     36 H          18.2045   41.8180   34.1193 H       1  UNL1        0.0619
     37 C          19.4380   40.8110   35.5870 C.ar    1  UNL1       -0.0169
     38 H          19.4100   41.6333   36.3019 H       1  UNL1        0.0658
@<TRIPOS>BOND
     1     1     2    2
     2     2     3    1
     3     2    16    1
     4     3     4   ar
     5     3    13   ar
     6     4     6   ar
     7     4     5    1
     8     6     7    1
     9     6    11   ar
    10     7     8    1
    11     7     9    1
    12     7    10    1
    13    11    14   ar
    14    11    12    1
    15    13    14   ar
    16    13    18    1
    17    14    15    1
    18    16    17    1
    19    16    19    1
    20    16    21    1
    21    17    18    2
    22    17    27    1
    23    19    20    1
    24    21    24    1
    25    21    22    1
    26    21    23    1
    27    24    27    1
    28    24    25    1
    29    24    26    1
    30    27    28    1
    31    28    29   ar
    32    28    37   ar
    33    29    31   ar
    34    29    30    1
    35    31    33   ar
    36    31    32    1
    37    33    35   ar
    38    33    34    1
    39    35    37   ar
    40    35    36    1
    41    37    38    1
