@<TRIPOS>MOLECULE
LIGAND
 43 45 0 0 0
SMALL
GASTEIGER

@<TRIPOS>ATOM
      1 C          -9.7390   55.1170   46.8920 C.2     1  UNL1       -0.0262
      2 H          -9.6628   55.0197   45.8090 H       1  UNL1        0.0644
      3 CA         -8.6220   54.7640   47.5790 C.2     1  UNL1        0.1235
      4 N          -8.4650   54.7280   49.0400 N.am    1  UNL1       -0.2757
      5 H          -8.5786   53.8222   49.5169 H       1  UNL1        0.1553
      6 C          -8.1780   55.8220   49.8020 C.2     1  UNL1        0.2484
      7 O          -8.0570   56.9560   49.3420 O.2     1  UNL1       -0.2699
      8 C         -11.0380   55.6110   47.3820 C.ar    1  UNL1       -0.0228
      9 C         -12.1670   55.7430   46.5440 C.ar    1  UNL1       -0.0511
     10 H         -12.1336   55.3724   45.5195 H       1  UNL1        0.0625
     11 C         -13.4320   56.7680   48.3780 C.ar    1  UNL1        0.1285
     12 C         -11.1450   56.0490   48.6910 C.ar    1  UNL1       -0.0511
     13 H         -10.2846   55.9459   49.3522 H       1  UNL1        0.0625
     14 C         -12.3060   56.6130   49.1890 C.ar    1  UNL1       -0.0188
     15 H         -12.3422   56.9406   50.2280 H       1  UNL1        0.0654
     16 C         -14.8120   57.5690   50.2350 C.ar    1  UNL1        0.1423
     17 C         -14.5710   58.8680   50.7250 C.ar    1  UNL1        0.0601
     18 C         -14.8090   59.1780   52.0930 C.ar    1  UNL1       -0.0442
     19 H         -14.5862   60.1750   52.4732 H       1  UNL1        0.0630
     20 C         -15.3330   58.1950   52.9560 C.ar    1  UNL1       -0.0605
     21 H         -15.5174   58.4353   54.0031 H       1  UNL1        0.0618
     22 C         -15.6200   56.9020   52.4720 C.ar    1  UNL1       -0.0582
     23 H         -16.0475   56.1480   53.1329 H       1  UNL1        0.0619
     24 C         -15.3480   56.5970   51.1260 C.ar    1  UNL1       -0.0182
     25 H         -15.5526   55.5922   50.7565 H       1  UNL1        0.0655
     26 C          -7.4500   54.2820   46.7960 C.2     1  UNL1        0.4004
     27 O          -7.4970   54.3880   45.5530 O.co2   1  UNL1       -0.2392
     28 OXT        -6.4910   53.7290   47.3780 O.co2   1  UNL1       -0.2392
     29 C          -8.0460   55.5360   51.2270 C.ar    1  UNL1        0.0370
     30 C          -7.2720   56.3900   52.0390 C.ar    1  UNL1       -0.0496
     31 H          -6.6468   57.1592   51.5856 H       1  UNL1        0.0625
     32 C          -7.3110   56.2440   53.4370 C.ar    1  UNL1       -0.0610
     33 H          -6.7148   56.9000   54.0712 H       1  UNL1        0.0618
     34 C          -8.1280   55.2410   54.0210 C.ar    1  UNL1       -0.0617
     35 H          -8.1920   55.1611   55.1062 H       1  UNL1        0.0618
     36 C          -8.8600   54.3440   53.2080 C.ar    1  UNL1       -0.0610
     37 H          -9.4634   53.5573   53.6609 H       1  UNL1        0.0618
     38 C          -8.8010   54.4780   51.8090 C.ar    1  UNL1       -0.0496
     39 H          -9.3329   53.7724   51.1707 H       1  UNL1        0.0625
     40 C         -13.3460   56.3600   47.0400 C.ar    1  UNL1       -0.0188
     41 H         -14.1933   56.5180   46.3728 H       1  UNL1        0.0654
     42 O         -14.6120   57.2860   48.8730 O.3     1  UNL1       -0.4549
     43 BR        -14.0950   60.2100   49.5160 Br      1  UNL1       -0.0465
@<TRIPOS>BOND
     1     1     3    2
     2     1     8    1
     3     1     2    1
     4     3     4    1
     5     3    26    1
     6     4     6   am
     7     4     5    1
     8     6     7    2
     9     6    29    1
    10     8     9   ar
    11     8    12   ar
    12     9    40   ar
    13     9    10    1
    14    11    14   ar
    15    11    40   ar
    16    11    42    1
    17    12    14   ar
    18    12    13    1
    19    14    15    1
    20    16    17   ar
    21    16    24   ar
    22    16    42    1
    23    17    18   ar
    24    17    43    1
    25    18    20   ar
    26    18    19    1
    27    20    22   ar
    28    20    21    1
    29    22    24   ar
    30    22    23    1
    31    24    25    1
    32    26    27   ar
    33    26    28   ar
    34    29    30   ar
    35    29    38   ar
    36    30    32   ar
    37    30    31    1
    38    32    34   ar
    39    32    33    1
    40    34    36   ar
    41    34    35    1
    42    36    38   ar
    43    36    37    1
    44    38    39    1
    45    40    41    1
