@<TRIPOS>MOLECULE
LIGAND
 65 69 0 0 0
SMALL
GASTEIGER

@<TRIPOS>ATOM
      1 C           5.4490   -0.5080   18.6240 C.ar    1  UNL1       -0.0511
      2 H           5.7877   -0.3926   19.6536 H       1  UNL1        0.0625
      3 C           4.5650   -0.8100   16.0060 C.ar    1  UNL1       -0.0259
      4 H           4.2355   -0.9207   14.9729 H       1  UNL1        0.0646
      5 C           4.1820   -1.0730   18.3820 C.ar    1  UNL1       -0.0104
      6 C           6.2850   -0.0910   17.5860 C.ar    1  UNL1       -0.0259
      7 H           7.2646    0.3445   17.7830 H       1  UNL1        0.0646
      8 C           5.8100   -0.2570   16.2890 C.ar    1  UNL1        0.1234
      9 C           3.7370   -1.2240   17.0600 C.ar    1  UNL1       -0.0511
     10 H           2.7586   -1.6582   16.8542 H       1  UNL1        0.0625
     11 C           3.3810   -1.4790   19.5430 C.ar    1  UNL1        0.0749
     12 F           6.5990    0.1370   15.2950 F       1  UNL1       -0.2055
     13 N           2.1750   -2.9890   20.8490 N.ar    1  UNL1       -0.2461
     14 C           1.4800   -4.1590   21.3750 C.3     1  UNL1        0.0512
     15 H           1.4138   -4.0443   22.4676 H       1  UNL1        0.0544
     16 C           1.5760   -1.6340   22.7780 C.3     1  UNL1        0.0292
     17 H           1.3467   -0.5880   23.0140 H       1  UNL1        0.0472
     18 H           0.6113   -2.1577   22.8291 H       1  UNL1        0.0472
     19 H           2.2589   -2.0287   23.5440 H       1  UNL1        0.0472
     20 C           2.9080   -0.8680   20.6510 C.ar    1  UNL1        0.0966
     21 C           3.0750    0.5310   21.0580 C.ar    1  UNL1        0.0945
     22 O           3.0970   -3.8030   18.8770 O.2     1  UNL1       -0.2655
     23 C           2.8950   -2.9020   19.6670 C.ar    1  UNL1        0.2758
     24 N           2.1780   -1.7310   21.4660 N.ar    1  UNL1       -0.2814
     25 C          -0.5900   -5.5720   21.2130 C.3     1  UNL1       -0.0915
     26 H          -1.5812   -5.6931   20.7530 H       1  UNL1        0.0055
     27 H          -0.7181   -5.5995   22.3055 H       1  UNL1        0.0055
     28 C           1.5360   -6.6780   21.4960 C.3     1  UNL1       -0.0915
     29 H           1.3430   -6.7375   22.5776 H       1  UNL1        0.0055
     30 H           2.0957   -7.5802   21.2088 H       1  UNL1        0.0055
     31 C           2.3150   -5.4200   21.1320 C.3     1  UNL1       -0.0459
     32 H           3.2501   -5.3943   21.7135 H       1  UNL1        0.0267
     33 H           2.6045   -5.5682   20.0857 H       1  UNL1        0.0267
     34 C           0.0810   -4.2770   20.7600 C.3     1  UNL1       -0.0459
     35 H           0.1558   -4.2408   19.6580 H       1  UNL1        0.0267
     36 H          -0.5531   -3.4256   21.0525 H       1  UNL1        0.0267
     37 N           0.2420   -6.7070   20.8160 N.3     1  UNL1        0.3791
     38 H           0.3778   -6.7034   19.8110 H       1  UNL1       -0.0859
     39 H          -0.2313   -7.5857   20.9967 H       1  UNL1       -0.0859
     40 N           3.2280    0.8200   22.3590 N.ar    1  UNL1       -0.2129
     41 C           3.2290    2.8090   20.5140 C.ar    1  UNL1        0.0333
     42 H           3.2302    3.6133   19.7783 H       1  UNL1        0.0831
     43 N           3.5370    2.4650   23.9890 N.pl3   1  UNL1       -0.3069
     44 H           3.7379    3.4549   24.1906 H       1  UNL1        0.1495
     45 C           3.0690    1.5140   20.0850 C.ar    1  UNL1       -0.0159
     46 H           2.9434    1.2728   19.0295 H       1  UNL1        0.0655
     47 C           3.3780    2.1050   22.6890 C.ar    1  UNL1        0.2162
     48 N           3.3840    3.1140   21.8130 N.ar    1  UNL1       -0.2229
     49 C           3.4450    1.5650   25.0990 C.3     1  UNL1        0.0457
     50 H           4.1990    0.7634   24.9684 H       1  UNL1        0.0545
     51 C           2.1050    0.8860   25.2920 C.ar    1  UNL1       -0.0275
     52 C           3.7960    2.3060   26.4050 C.3     1  UNL1       -0.0424
     53 H           3.8025    1.5952   27.2471 H       1  UNL1        0.0251
     54 H           4.7894    2.7771   26.3561 H       1  UNL1        0.0251
     55 H           3.0536    3.0878   26.6297 H       1  UNL1        0.0251
     56 C          -0.3270   -0.4290   25.6950 C.ar    1  UNL1       -0.0617
     57 H          -1.2728   -0.9465   25.8554 H       1  UNL1        0.0618
     58 C           2.0630   -0.3090   26.0290 C.ar    1  UNL1       -0.0568
     59 H           2.9781   -0.7290   26.4465 H       1  UNL1        0.0621
     60 C           0.9180    1.4030   24.7670 C.ar    1  UNL1       -0.0568
     61 H           0.9430    2.3301   24.1943 H       1  UNL1        0.0621
     62 C          -0.2990    0.7500   24.9650 C.ar    1  UNL1       -0.0614
     63 H          -1.2187    1.1624   24.5501 H       1  UNL1        0.0618
     64 C           0.8460   -0.9520   26.2220 C.ar    1  UNL1       -0.0614
     65 H           0.8122   -1.8789   26.7945 H       1  UNL1        0.0618
@<TRIPOS>BOND
     1     1     5   ar
     2     1     6   ar
     3     1     2    1
     4     3     8   ar
     5     3     9   ar
     6     3     4    1
     7     5     9   ar
     8     5    11    1
     9     6     8   ar
    10     6     7    1
    11     8    12    1
    12     9    10    1
    13    11    20   ar
    14    11    23   ar
    15    13    14    1
    16    13    23   ar
    17    13    24   ar
    18    14    31    1
    19    14    34    1
    20    14    15    1
    21    16    24    1
    22    16    17    1
    23    16    18    1
    24    16    19    1
    25    20    21    1
    26    20    24   ar
    27    21    40   ar
    28    21    45   ar
    29    22    23    2
    30    25    34    1
    31    25    37    1
    32    25    26    1
    33    25    27    1
    34    28    31    1
    35    28    37    1
    36    28    29    1
    37    28    30    1
    38    31    32    1
    39    31    33    1
    40    34    35    1
    41    34    36    1
    42    37    38    1
    43    37    39    1
    44    40    47   ar
    45    41    45   ar
    46    41    48   ar
    47    41    42    1
    48    43    47    1
    49    43    49    1
    50    43    44    1
    51    45    46    1
    52    47    48   ar
    53    49    51    1
    54    49    52    1
    55    49    50    1
    56    51    58   ar
    57    51    60   ar
    58    52    53    1
    59    52    54    1
    60    52    55    1
    61    56    62   ar
    62    56    64   ar
    63    56    57    1
    64    58    64   ar
    65    58    59    1
    66    60    62   ar
    67    60    61    1
    68    62    63    1
    69    64    65    1
