@<TRIPOS>MOLECULE
LIGAND
 43 44 0 0 0
SMALL
GASTEIGER

@<TRIPOS>ATOM
      1 C          29.1850    1.4670    9.0150 C.ar    1  UNL1       -0.0342
      2 H          28.5634    1.9986    8.2946 H       1  UNL1        0.0637
      3 C          28.7480    1.3070   10.3270 C.ar    1  UNL1       -0.0247
      4 H          27.7851    1.7143   10.6354 H       1  UNL1        0.0647
      5 C          29.5430    0.6260   11.2440 C.ar    1  UNL1        0.1235
      6 F          29.1270    0.4660   12.5160 F       1  UNL1       -0.2055
      7 C          30.7730    0.1070   10.8520 C.ar    1  UNL1       -0.0247
      8 H          31.3940   -0.4263   11.5717 H       1  UNL1        0.0647
      9 C          31.2100    0.2690    9.5410 C.ar    1  UNL1       -0.0342
     10 H          32.1741   -0.1360    9.2336 H       1  UNL1        0.0637
     11 C          30.4160    0.9480    8.6230 C.ar    1  UNL1        0.0885
     12 S          30.9610    1.1230    6.9710 S.O2    1  UNL1        0.0001
     13 O          30.5010    2.4500    6.4430 O.2     1  UNL1       -0.1693
     14 O          32.4580    1.0530    6.9270 O.2     1  UNL1       -0.1693
     15 C          30.2570   -0.2330    5.9620 C.3     1  UNL1        0.1078
     16 H          29.5019   -0.7600    6.5652 H       1  UNL1        0.0538
     17 H          31.0982   -0.9278    5.8149 H       1  UNL1        0.0538
     18 C          29.6810    0.2030    4.6120 C.3     1  UNL1        0.1583
     19 O          30.6660    0.9590    3.9030 O.3     1  UNL1       -0.3780
     20 H          31.4162    1.2393    4.5507 H       1  UNL1        0.2109
     21 C          29.2760   -1.0210    3.7880 C.3     1  UNL1       -0.0259
     22 H          28.8489   -0.7203    2.8185 H       1  UNL1        0.0263
     23 H          30.1664   -1.6374    3.5867 H       1  UNL1        0.0263
     24 H          28.5347   -1.6411    4.3142 H       1  UNL1        0.0263
     25 C          28.4490    1.0870    4.8230 C.2     1  UNL1        0.2503
     26 O          27.4440    0.6410    5.3760 O.2     1  UNL1       -0.2723
     27 N          28.6250    2.3570    4.4660 N.am    1  UNL1       -0.2831
     28 H          29.5580    2.6190    4.1170 H       1  UNL1        0.1549
     29 C          27.7060    3.3220    4.5180 C.ar    1  UNL1        0.0341
     30 C          26.3660    3.0880    4.8190 C.ar    1  UNL1       -0.0276
     31 H          26.0636    2.0838    5.1160 H       1  UNL1        0.0642
     32 C          28.0950    4.6030    4.1420 C.ar    1  UNL1       -0.0392
     33 H          29.1366    4.8079    3.8944 H       1  UNL1        0.0636
     34 C          27.1500    5.6220    4.0830 C.ar    1  UNL1       -0.0421
     35 H          27.4585    6.6269    3.7946 H       1  UNL1        0.0631
     36 C          25.8150    5.3730    4.3880 C.ar    1  UNL1        0.0635
     37 C          24.9330    6.4990    4.3240 C.1     1  UNL1        0.0997
     38 N          24.2430    7.4020    4.2630 N.1     1  UNL1       -0.1909
     39 C          25.3950    4.0900    4.7550 C.ar    1  UNL1        0.0739
     40 C          23.9310    3.7310    5.0750 C.3     1  UNL1        0.4187
     41 F          23.7140    3.8720    6.3790 F       1  UNL1       -0.1659
     42 F          23.0300    4.4730    4.4370 F       1  UNL1       -0.1659
     43 F          23.6400    2.4740    4.7490 F       1  UNL1       -0.1659
@<TRIPOS>BOND
     1     1     3   ar
     2     1    11   ar
     3     1     2    1
     4     3     5   ar
     5     3     4    1
     6     5     6    1
     7     5     7   ar
     8     7     9   ar
     9     7     8    1
    10     9    11   ar
    11     9    10    1
    12    11    12    1
    13    12    13    2
    14    12    14    2
    15    12    15    1
    16    15    18    1
    17    15    16    1
    18    15    17    1
    19    18    19    1
    20    18    21    1
    21    18    25    1
    22    19    20    1
    23    21    22    1
    24    21    23    1
    25    21    24    1
    26    25    26    2
    27    25    27   am
    28    27    29    1
    29    27    28    1
    30    29    30   ar
    31    29    32   ar
    32    30    39   ar
    33    30    31    1
    34    32    34   ar
    35    32    33    1
    36    34    36   ar
    37    34    35    1
    38    36    37    1
    39    36    39   ar
    40    37    38    3
    41    39    40    1
    42    40    41    1
    43    40    42    1
    44    40    43    1
