@<TRIPOS>MOLECULE
LIGAND
 60 63 0 0 0
SMALL
GASTEIGER

@<TRIPOS>ATOM
      1 C          44.0410  110.8130   82.1470 C.ar    1  UNL1       -0.0440
      2 C          44.2610  111.3110   80.8040 C.ar    1  UNL1       -0.0570
      3 H          43.4057  111.5150   80.1599 H       1  UNL1        0.0622
      4 C          45.2100  110.5560   82.9790 C.ar    1  UNL1       -0.0583
      5 H          45.0747  110.1827   83.9941 H       1  UNL1        0.0620
      6 C          45.6100  111.5430   80.3020 C.ar    1  UNL1       -0.0646
      7 C          46.5360  110.7870   82.4820 C.ar    1  UNL1       -0.0613
      8 H          47.3940  110.5869   83.1238 H       1  UNL1        0.0618
      9 C          46.7450  111.2750   81.1590 C.ar    1  UNL1       -0.0604
     10 H          47.7576  111.4459   80.7936 H       1  UNL1        0.0620
     11 C          45.8300  112.0660   78.9070 C.3     1  UNL1       -0.0700
     12 H          46.8972  112.0624   78.6504 H       1  UNL1        0.0097
     13 H          45.4610  113.0982   78.8150 H       1  UNL1        0.0097
     14 N          45.1380  111.2800   77.8400 N.3     1  UNL1        0.3808
     15 H          45.3289  111.6384   76.9155 H       1  UNL1       -0.0896
     16 H          45.4262  110.3113   77.8578 H       1  UNL1       -0.0896
     17 H          44.1366  111.2826   77.9675 H       1  UNL1       -0.0896
     18 C          42.0260  111.7750   83.5410 C.3     1  UNL1       -0.0303
     19 H          42.6804  112.0753   84.3747 H       1  UNL1        0.0286
     20 H          41.9149  112.6469   82.8739 H       1  UNL1        0.0286
     21 C          40.6110  111.3840   84.1200 C.3     1  UNL1        0.0155
     22 H          40.1922  112.2144   84.6998 H       1  UNL1        0.0465
     23 H          40.6802  110.5030   84.7827 H       1  UNL1        0.0465
     24 C          38.5650  111.7500   82.5500 C.2     1  UNL1        0.2481
     25 O          37.9530  111.4380   81.5380 O.2     1  UNL1       -0.2699
     26 C          42.6420  110.5510   82.7440 C.3     1  UNL1       -0.0130
     27 H          42.7442  109.7196   83.4665 H       1  UNL1        0.0350
     28 N          39.7000  111.0510   82.9940 N.am    1  UNL1       -0.2974
     29 C          40.2150  109.8540   82.2560 C.3     1  UNL1        0.0155
     30 H          39.4933  109.5665   81.4801 H       1  UNL1        0.0465
     31 H          40.2517  109.0119   82.9724 H       1  UNL1        0.0465
     32 C          41.6090  110.0850   81.6430 C.3     1  UNL1       -0.0303
     33 H          41.9342  109.1547   81.1512 H       1  UNL1        0.0286
     34 H          41.5090  110.8625   80.8679 H       1  UNL1        0.0286
     35 C          37.9590  112.9180   83.2770 C.ar    1  UNL1        0.0552
     36 C          37.6670  114.1550   82.6070 C.ar    1  UNL1       -0.0435
     37 H          37.9041  114.2871   81.5513 H       1  UNL1        0.0629
     38 C          37.6220  112.8260   84.6570 C.ar    1  UNL1        0.0397
     39 H          37.8377  111.8907   85.1735 H       1  UNL1        0.0837
     40 C          37.0480  115.2260   83.3700 C.ar    1  UNL1       -0.0282
     41 N          37.0540  113.8200   85.3650 N.ar    1  UNL1       -0.2622
     42 C          36.6890  116.5330   82.7400 C.3     1  UNL1       -0.0222
     43 H          37.1353  116.5968   81.7340 H       1  UNL1        0.0317
     44 H          37.1272  117.3582   83.3292 H       1  UNL1        0.0317
     45 C          36.7700  114.9800   84.7460 C.ar    1  UNL1        0.0308
     46 H          36.3023  115.7742   85.3279 H       1  UNL1        0.0832
     47 C          35.1840  116.7610   82.6530 C.3     1  UNL1       -0.0236
     48 H          35.0165  117.7828   82.2680 H       1  UNL1        0.0316
     49 H          34.7575  116.7605   83.6713 H       1  UNL1        0.0316
     50 C          34.3910  115.8010   81.8010 C.ar    1  UNL1       -0.0470
     51 C          34.2890  115.9720   80.3780 C.ar    1  UNL1       -0.0586
     52 H          34.7979  116.8088   79.8997 H       1  UNL1        0.0620
     53 C          33.7020  114.6730   82.4240 C.ar    1  UNL1       -0.0586
     54 H          33.7684  114.5257   83.5020 H       1  UNL1        0.0620
     55 C          33.5110  115.0380   79.5610 C.ar    1  UNL1       -0.0615
     56 H          33.4425  115.1804   78.4825 H       1  UNL1        0.0618
     57 C          32.9400  113.7600   81.6260 C.ar    1  UNL1       -0.0615
     58 H          32.4299  112.9245   82.1053 H       1  UNL1        0.0618
     59 C          32.8370  113.9310   80.1880 C.ar    1  UNL1       -0.0617
     60 H          32.2559  113.2292   79.5898 H       1  UNL1        0.0618
@<TRIPOS>BOND
     1     1     2   ar
     2     1     4   ar
     3     1    26    1
     4     2     6   ar
     5     2     3    1
     6     4     7   ar
     7     4     5    1
     8     6     9   ar
     9     6    11    1
    10     7     9   ar
    11     7     8    1
    12     9    10    1
    13    11    14    1
    14    11    12    1
    15    11    13    1
    16    14    15    1
    17    14    16    1
    18    14    17    1
    19    18    21    1
    20    18    26    1
    21    18    19    1
    22    18    20    1
    23    21    28    1
    24    21    22    1
    25    21    23    1
    26    24    25    2
    27    24    28   am
    28    24    35    1
    29    26    32    1
    30    26    27    1
    31    28    29    1
    32    29    32    1
    33    29    30    1
    34    29    31    1
    35    32    33    1
    36    32    34    1
    37    35    36   ar
    38    35    38   ar
    39    36    40   ar
    40    36    37    1
    41    38    41   ar
    42    38    39    1
    43    40    42    1
    44    40    45   ar
    45    41    45   ar
    46    42    47    1
    47    42    43    1
    48    42    44    1
    49    45    46    1
    50    47    50    1
    51    47    48    1
    52    47    49    1
    53    50    51   ar
    54    50    53   ar
    55    51    55   ar
    56    51    52    1
    57    53    57   ar
    58    53    54    1
    59    55    59   ar
    60    55    56    1
    61    57    59   ar
    62    57    58    1
    63    59    60    1
