@<TRIPOS>MOLECULE
LIGAND
 50 53 0 0 0
SMALL
GASTEIGER

@<TRIPOS>ATOM
      1 C          18.9620   -8.0070   12.9180 C.3     1  UNL1        0.0788
      2 H          18.9961   -9.0944   13.0829 H       1  UNL1        0.0660
      3 H          19.6794   -7.7643   12.1171 H       1  UNL1        0.0660
      4 H          19.2780   -7.5188   13.8537 H       1  UNL1        0.0660
      5 O          17.6310   -7.6670   12.5680 O.3     1  UNL1       -0.4951
      6 C          17.6080   -6.4090   11.9280 C.ar    1  UNL1        0.1201
      7 C          18.3940   -5.3380   12.4250 C.ar    1  UNL1       -0.0194
      8 H          19.0511   -5.4932   13.2807 H       1  UNL1        0.0654
      9 C          18.3210   -4.0440   11.7950 C.ar    1  UNL1       -0.0504
     10 H          18.9131   -3.2140   12.1805 H       1  UNL1        0.0625
     11 C          16.7450   -6.1960   10.8440 C.ar    1  UNL1       -0.0194
     12 H          16.1224   -7.0127   10.4787 H       1  UNL1        0.0654
     13 C          16.6770   -4.9250   10.2200 C.ar    1  UNL1       -0.0504
     14 H          15.9995   -4.7709    9.3802 H       1  UNL1        0.0625
     15 C          17.4810   -3.8550   10.6780 C.ar    1  UNL1       -0.0133
     16 C          17.3310   -2.4950   10.0540 C.ar    1  UNL1        0.0406
     17 C          16.1970   -1.8060    9.9290 C.ar    1  UNL1        0.0878
     18 C          14.9220   -1.9560   10.4670 C.ar    1  UNL1        0.1336
     19 N          14.6190   -3.0080   11.2120 N.pl3   1  UNL1       -0.3262
     20 H          15.3601   -3.6531   11.5213 H       1  UNL1        0.1476
     21 C          13.2030   -3.2550   11.6010 C.3     1  UNL1        0.0336
     22 H          13.1660   -4.2949   11.9665 H       1  UNL1        0.0484
     23 H          12.5667   -3.2292   10.6996 H       1  UNL1        0.0484
     24 C          12.5240   -2.3810   12.7310 C.3     1  UNL1        0.0597
     25 H          13.1386   -2.3949   13.6455 H       1  UNL1        0.0573
     26 H          11.5803   -2.8891   12.9725 H       1  UNL1        0.0573
     27 O          12.1040   -0.9840   12.4450 O.3     1  UNL1       -0.3935
     28 H          12.9193   -0.3585   12.5157 H       1  UNL1        0.2095
     29 N          13.9850   -1.0330   10.2090 N.ar    1  UNL1       -0.2201
     30 C          14.2790    0.0380    9.4700 C.ar    1  UNL1        0.1219
     31 H          13.5098    0.7844    9.2717 H       1  UNL1        0.1049
     32 N          15.5230    0.2070    8.9640 N.ar    1  UNL1       -0.2005
     33 C          16.4790   -0.7010    9.1890 C.ar    1  UNL1        0.2331
     34 O          17.7140   -0.7390    8.8380 O.2     1  UNL1       -0.4360
     35 C          18.2670   -1.8180    9.2740 C.ar    1  UNL1        0.1460
     36 C          19.5820   -2.1570    9.0700 C.ar    1  UNL1        0.0182
     37 C          20.4510   -1.2110    8.5100 C.ar    1  UNL1       -0.0476
     38 H          20.0841   -0.2138    8.2669 H       1  UNL1        0.0626
     39 C          21.7700   -1.5370    8.2650 C.ar    1  UNL1       -0.0193
     40 H          22.4469   -0.7902    7.8500 H       1  UNL1        0.0654
     41 C          22.2320   -2.8040    8.5440 C.ar    1  UNL1        0.1201
     42 O          23.5290   -3.1180    8.3000 O.3     1  UNL1       -0.4951
     43 C          24.5290   -2.0490    8.1770 C.3     1  UNL1        0.0788
     44 H          25.5012   -2.5572    8.1680 H       1  UNL1        0.0660
     45 H          24.4047   -1.4990    7.2341 H       1  UNL1        0.0660
     46 H          24.4851   -1.3636    9.0339 H       1  UNL1        0.0660
     47 C          21.3610   -3.7670    9.0800 C.ar    1  UNL1       -0.0193
     48 H          21.7271   -4.7683    9.3068 H       1  UNL1        0.0654
     49 C          20.0290   -3.4400    9.3210 C.ar    1  UNL1       -0.0476
     50 H          19.3417   -4.1933    9.7062 H       1  UNL1        0.0626
@<TRIPOS>BOND
     1     1     5    1
     2     1     2    1
     3     1     3    1
     4     1     4    1
     5     5     6    1
     6     6     7   ar
     7     6    11   ar
     8     7     9   ar
     9     7     8    1
    10     9    15   ar
    11     9    10    1
    12    11    13   ar
    13    11    12    1
    14    13    15   ar
    15    13    14    1
    16    15    16    1
    17    16    17   ar
    18    16    35   ar
    19    17    18   ar
    20    17    33   ar
    21    18    19    1
    22    18    29   ar
    23    19    21    1
    24    19    20    1
    25    21    24    1
    26    21    22    1
    27    21    23    1
    28    24    27    1
    29    24    25    1
    30    24    26    1
    31    27    28    1
    32    29    30   ar
    33    30    32   ar
    34    30    31    1
    35    32    33   ar
    36    33    34   ar
    37    34    35   ar
    38    35    36    1
    39    36    37   ar
    40    36    49   ar
    41    37    39   ar
    42    37    38    1
    43    39    41   ar
    44    39    40    1
    45    41    42    1
    46    41    47   ar
    47    42    43    1
    48    43    44    1
    49    43    45    1
    50    43    46    1
    51    47    49   ar
    52    47    48    1
    53    49    50    1
