@<TRIPOS>MOLECULE
LIGAND
 45 47 0 0 0
SMALL
GASTEIGER

@<TRIPOS>ATOM
      1 C          35.0300    5.5210   21.5590 C.3     1  UNL1        0.0788
      2 H          35.9041    5.0373   21.1019 H       1  UNL1        0.0660
      3 H          34.2496    4.7595   21.7099 H       1  UNL1        0.0660
      4 H          34.6646    6.2995   20.8720 H       1  UNL1        0.0660
      5 O          35.4700    6.0780   22.7990 O.3     1  UNL1       -0.4951
      6 C          34.4740    6.6820   23.5620 C.ar    1  UNL1        0.1201
      7 C          33.1400    6.8550   23.1240 C.ar    1  UNL1       -0.0194
      8 H          32.8399    6.5190   22.1315 H       1  UNL1        0.0654
      9 C          32.1930    7.4710   23.9890 C.ar    1  UNL1       -0.0504
     10 H          31.1590    7.5848   23.6634 H       1  UNL1        0.0625
     11 C          34.8200    7.1250   24.8320 C.ar    1  UNL1       -0.0194
     12 H          35.8414    6.9792   25.1835 H       1  UNL1        0.0654
     13 C          33.8950    7.7530   25.6730 C.ar    1  UNL1       -0.0504
     14 H          34.2087    8.1016   26.6569 H       1  UNL1        0.0625
     15 C          32.5790    7.9360   25.2640 C.ar    1  UNL1       -0.0134
     16 C          31.6570    8.5710   26.1310 C.ar    1  UNL1        0.0397
     17 C          31.3230    8.1960   27.4090 C.ar    1  UNL1        0.1551
     18 C          31.8440    7.0080   28.2280 C.2     1  UNL1        0.2648
     19 O          32.3840    6.0480   27.7010 O.2     1  UNL1       -0.2684
     20 N          31.6730    7.1410   29.5480 N.am    1  UNL1       -0.3103
     21 H          31.2507    8.0173   29.8865 H       1  UNL1        0.1490
     22 C          32.0460    6.1200   30.5660 C.3     1  UNL1        0.0091
     23 H          31.3141    5.2939   30.5502 H       1  UNL1        0.0459
     24 H          31.9741    6.6134   31.5487 H       1  UNL1        0.0459
     25 C          33.4590    5.5720   30.3570 C.3     1  UNL1       -0.0495
     26 H          33.7647    5.0153   31.2559 H       1  UNL1        0.0245
     27 H          33.5306    4.8739   29.5089 H       1  UNL1        0.0245
     28 H          34.1816    6.3860   30.1953 H       1  UNL1        0.0245
     29 N          30.4190    9.0730   27.8520 N.ar    1  UNL1       -0.1680
     30 N          30.1470    9.9480   26.9810 N.ar    1  UNL1       -0.2755
     31 H          29.4567   10.7037   27.0962 H       1  UNL1        0.1889
     32 C          30.8870    9.7460   25.8920 C.ar    1  UNL1        0.0777
     33 C          30.8960   10.5090   24.7240 C.ar    1  UNL1        0.0434
     34 C          32.0850   11.0070   24.2240 C.ar    1  UNL1       -0.0272
     35 H          33.0207   10.7891   24.7388 H       1  UNL1        0.0641
     36 C          32.0980   11.7910   23.0590 C.ar    1  UNL1        0.0831
     37 CL         33.5840   12.4180   22.4400 Cl      1  UNL1       -0.0797
     38 C          30.9090   12.0920   22.4120 C.ar    1  UNL1        0.1386
     39 O          30.9180   12.8280   21.2740 O.3     1  UNL1       -0.5052
     40 H          31.4475   13.6974   21.4310 H       1  UNL1        0.2922
     41 C          29.7020   11.5950   22.9230 C.ar    1  UNL1        0.0234
     42 H          28.7640   11.8015   22.4077 H       1  UNL1        0.0691
     43 C          29.7050   10.8360   24.0920 C.ar    1  UNL1        0.1296
     44 O          28.5470   10.3880   24.5870 O.3     1  UNL1       -0.5060
     45 H          27.9237   11.1852   24.7789 H       1  UNL1        0.2922
@<TRIPOS>BOND
     1     1     5    1
     2     1     2    1
     3     1     3    1
     4     1     4    1
     5     5     6    1
     6     6     7   ar
     7     6    11   ar
     8     7     9   ar
     9     7     8    1
    10     9    15   ar
    11     9    10    1
    12    11    13   ar
    13    11    12    1
    14    13    15   ar
    15    13    14    1
    16    15    16    1
    17    16    17   ar
    18    16    32   ar
    19    17    18    1
    20    17    29   ar
    21    18    19    2
    22    18    20   am
    23    20    22    1
    24    20    21    1
    25    22    25    1
    26    22    23    1
    27    22    24    1
    28    25    26    1
    29    25    27    1
    30    25    28    1
    31    29    30   ar
    32    30    32   ar
    33    30    31    1
    34    32    33    1
    35    33    34   ar
    36    33    43   ar
    37    34    36   ar
    38    34    35    1
    39    36    37    1
    40    36    38   ar
    41    38    39    1
    42    38    41   ar
    43    39    40    1
    44    41    43   ar
    45    41    42    1
    46    43    44    1
    47    44    45    1
